8

H -3.6864679126	-2.9073100681	-0.7503074585
H -2.029962414	-2.5559374632	-1.2160101032
H -2.3906501428	-3.1142342879	0.4232582724
C -2.9694166241	-1.0306669075	0.0576463013
C -2.7434161502	-2.4836416649	-0.396209711
H -2.062932811480263	-0.5944980747914473	0.5310957865164474
H -3.771278248161842	-1.0529702031894737	0.7884724182453948
H -3.297636267763158	-0.46966862579276314	-0.8072660623006579
