20

H -2.5762556857	1.7654886021	0.776490041
H -4.7129550155	2.9304640007	0.7835448118
C -0.1654340755	-1.6108215211	0.8085117287
C -0.8856430509	-0.2761926605	0.5220288307
H -4.5113408291	-1.7762796465	-0.6708281375
H -6.6556399262	-0.5916823252	-0.659952979
H -6.7865306612	1.7769491416	0.0671133495
N -2.153554702	-0.7739982365	0.0307083544
N -2.1693699899	-2.1318218037	0.0312617041
N -1.1329398329	-2.632608343	0.4125021629
H 0.1225734516	-1.7897368349	1.8393858671
H -1.007524403	0.3687839867	1.3852058795
C -3.4599405283	1.2324690082	0.4611845315
C -4.6804613617	1.8976122894	0.462767283
C -5.8391069383	1.2563175315	0.0641412083
C -5.7618440619	-0.0708709905	-0.3425015576
C -4.5556313975	-0.7473200521	-0.3533398158
C -3.3877287547	-0.0963971077	0.0546220476
H 0.680780428932237	-1.5689137932552633	0.12413501337894739
H -0.24785265545921054	0.1474442994046053	-0.26578373904802644
