81

C         4.4995289447   -2.4386062347    0.4685294419
C         5.6956039782   -1.5122901957    0.3532991551
C         5.3816658525   -0.3123771823   -0.5953916203
C         3.8379839261   -0.0333254776   -0.6574072280
C         3.0334389997   -0.2746177113    0.6535230193
C         3.2400677327   -1.7735123203    1.0509500111
C         3.4690351646    1.3136683987   -1.2763352182
C         2.0055691496    1.3044636568   -1.6938910389
C         1.0869982556    0.6976186022   -0.6571534401
C         1.5294683427    0.0008826433    0.3943229904
C         6.2209766531    0.9178227996   -0.2055530411
C         5.8312656952   -0.7400091601   -2.0088251722
C         0.5767764434   -0.4989871141    1.4854377453
C        -0.9358612034   -0.3038884712    1.2536449100
C        -1.2042814117    0.9445087236    0.4183914847
C        -0.4156468861    0.8091422798   -0.9204344279
C        -2.6525099814    1.1460482809   -0.0964291242
C        -2.4597811340    2.0954934950   -1.3167054854
C        -0.9577309661    2.0199925263   -1.7108360488
C        -3.7606221638    1.5142378264    0.9318029269
C        -5.0990878889    0.8362995050    0.5711280486
C        -5.1655738008   -0.6702417882    0.8572474124
C        -6.5236713135   -1.2483736862    0.5520394236
C        -6.8618229212   -2.1670823269   -0.3473650272
C        -4.0145729036    3.0139177916    1.1432657571
C        -8.2977537312   -2.6104723560   -0.4966577106
C        -5.9075011308   -2.8581622272   -1.2907596673
O         6.0644684485   -1.1513474718    1.6662371588
C        -0.7805851430   -0.4528007196   -1.7517545769
C        -0.7454550780    2.1796963925    1.2267128595
H        -3.4498269121    1.1033116271    1.8981331353
H         3.4471567067   -0.7853941780   -1.3509011646
C         3.4856371977    0.6353699708    1.8198321363
H         4.7750428919   -3.2959455124    1.0853305763
H         4.2809177280   -2.8324681768   -0.5261333514
H         6.5274551689   -2.0732718293   -0.0858812784
H         3.2581630026   -1.8603469538    2.1380971405
H         2.3915801899   -2.3665556524    0.7094096164
H         4.0851058456    1.5302456293   -2.1502221704
H         3.6448372401    2.1252740153   -0.5683941935
H         1.6829942640    2.3249017139   -1.9088080660
H         1.8971795833    0.7576002861   -2.6379634603
H         5.9258563002    1.3557745829    0.7448880844
H         7.2802377101    0.6473862976   -0.1376381534
H         6.1499211968    1.6952998316   -0.9668056258
H         5.3845714253   -1.6926210118   -2.3025227099
H         5.5513434318   -0.0014143470   -2.7612112270
H         6.9172614265   -0.8564009046   -2.0523342914
H         0.8495731984    0.0127914359    2.4107868963
H         0.7566530577   -1.5542085016    1.6883274103
H        -1.3553091892   -1.1798300907    0.7584485239
H        -1.4314034295   -0.2442774802    2.2262187147
H        -2.9508854884    0.1796514075   -0.4955304720
H        -3.1044907783    1.7970656525   -2.1454954934
H        -2.7281413783    3.1236830904   -1.0817608333
H        -0.4491469670    2.9414993440   -1.4300830123
H        -0.8228479570    1.9057452916   -2.7877008973
H        -5.3277564699    1.0157351896   -0.4853534955
H        -5.9018868330    1.3203816590    1.1362268505
H        -4.3846510337   -1.1995242311    0.3149477738
H        -4.9559085853   -0.8283687732    1.9214514352
H        -7.3265324131   -0.8357038088    1.1585768696
H        -4.6729948626    3.1575051418    2.0036819393
H        -4.5130503158    3.4597824842    0.2790235963
H        -3.1041500390    3.5802222859    1.3314882785
H        -8.9569806275   -2.0939849689    0.2008579428
H        -8.6592440012   -2.4216924064   -1.5123427454
H        -8.3916824331   -3.6869279234   -0.3220259014
H        -4.8806071250   -2.5141567684   -1.1978867726
H        -6.2223648132   -2.7019330925   -2.3269235790
H        -5.9184975051   -3.9385982267   -1.1173055335
H         6.9117695488   -0.7349908818    1.6559184924
H        -0.6003942055   -1.3791194770   -1.2095570615
H        -0.1479985167   -0.4773397241   -2.6414661329
H        -1.8129255126   -0.4527376785   -2.1027866167
H         0.3181754844    2.1501543704    1.4509818104
H        -1.2804666469    2.2174217449    2.1777866444
H        -0.9391305207    3.1181224942    0.7100563843
H         4.5020459606    0.4153532257    2.1252910743
H         2.8534487948    0.4731099235    2.6929796898
H         3.4084728736    1.6921317124    1.5596415453
