304
1.xyz
C              27.906              7.295               42.087              
C              29.269              7.709               41.576              
O              29.763              7.192               40.572              
C              28.085              6.538               43.42               
O              28.897              5.369               43.277              
H              27.363              8.138               42.248              
H              28.517              7.15                44.078              
H              27.185              6.264               43.753              
H              29.782              5.63                42.9                
N              29.884              8.629               42.307              
C              31.214              9.119               41.997              
C              32.202              7.952               42.009              
O              33.269              8.038               41.402              
C              31.632              10.145              43.053              
O              31.404              9.635               44.367              
H              29.326              8.97                43.126              
H              31.204              9.5                 41.071              
H              32.599              10.34               42.949              
H              31.093              10.97               42.932              
H              31.399              8.638               44.335              
N              31.856              6.868               42.701              
C              32.744              5.713               42.771              
C              32.366              4.54                41.876              
O              32.932              3.452               41.987              
C              32.936              5.24                44.208              
C              34.413              5.107               44.57               
H              30.937              6.917               43.166              
H              33.669              6.03                42.468              
H              32.523              5.903               44.82               
H              32.508              4.351               44.311              
O              34.994              4.015               44.516              
N              35.046              6.237               44.888              
H              34.547              7.104               44.885              
H              36.014              6.216               45.129              
N              31.433              4.784               40.965              
C              30.992              3.772               40.025              
C              32.162              3.191               39.224              
O              32.386              1.988               39.262              
C              29.953              4.37                39.07               
C              29.517              3.448               37.954              
C              28.47               2.548               38.135              
C              30.146              3.495               36.703              
C              28.055              1.719               37.096              
C              29.741              2.668               35.657              
C              28.699              1.788               35.858              
O              28.293              0.983               34.821              
H              31.051              5.754               40.986              
H              30.567              3.015               40.542              
H              29.145              4.618               39.605              
H              30.346              5.193               38.659              
H              28.009              2.493               39.019              
H              30.898              4.135               36.56               
H              27.301              1.079               37.231              
H              30.203              2.716               34.775              
H              27.549              0.395               35.133              
N              32.926              4.028               38.535              
C              34.041              3.532               37.729              
C              35.091              2.755               38.522              
O              35.545              1.692               38.101              
C              34.664              4.659               36.918              
S              33.575              5.251               35.582              
H              32.675              5.026               38.614              
H              33.662              2.908               37.018              
H              34.847              5.422               37.522              
H              35.501              4.327               36.503              
N              35.458              3.255               39.688              
H              35.023              4.15                39.949              
C              22.003              5.422               16.752              
O              22.485              6.562               16.831              
N              20.793              5.188               16.243              
C              19.926              6.295               15.835              
C              19.515              7.133               17.049              
O              19.414              8.348               16.959              
C              18.67               5.78                15.135              
C              18.966              5.219               13.775              
C              19.648              5.978               12.828              
C              18.594              3.924               13.441              
C              19.959              5.456               11.583              
C              18.897              3.391               12.192              
C              19.582              4.164               11.275              
O              19.93               3.632               10.062              
H              20.532              4.195               16.165              
H              20.443              6.887               15.209              
H              18.274              5.063               15.695              
H              18.038              6.538               15.033              
H              19.918              6.917               13.05               
H              18.103              3.364               14.105              
H              20.454              6.012               10.913              
H              18.621              2.46                11.964              
H              20.672              2.974               10.19               
N              19.28               6.474               18.178              
C              18.898              7.158               19.406              
C              20.104              7.328               20.329              
O              21.128              6.655               20.18               
C              17.848              6.332               20.165              
O              16.772              5.925               19.335              
H              19.391              5.441               18.109              
H              18.565              8.076               19.164              
H              18.294              5.519               20.541              
H              17.487              6.888               20.915              
H              17.064              5.159               18.765              
N              19.981              8.254               21.269              
C              21.012              8.471               22.275              
C              20.788              7.342               23.301              
O              19.694              6.786               23.4                
C              20.846              9.861               22.985              
O              19.486              10.028              23.41               
C              21.216              11.001              22.039              
H              19.098              8.804               21.227              
H              21.894              8.341               21.868              
H              21.446              9.87                23.807              
H              20.919              10.777              21.109              
H              20.766              11.845              22.335              
H              22.208              11.136              22.046              
H              19.438              10.08               24.413              
N              21.827              6.992               24.039              
C              21.748              5.94                25.028              
C              22.469              6.429               26.263              
O              23.352              7.277               26.183              
C              22.431              4.668               24.513              
C              21.706              3.978               23.359              
S              22.423              2.373               22.965              
C              21.183              1.689               21.908              
H              22.698              7.536               23.847              
H              20.791              5.796               25.262              
H              23.365              4.9                 24.206              
H              22.511              4.009               25.275              
H              20.718              3.885               23.61               
H              21.731              4.598               22.546              
H              20.452              2.36                21.75               
H              21.583              1.434               21.022              
H              20.782              0.868               22.328              
N              22.097              5.88                27.404              
C              22.711              6.261               28.662              
C              24.043              5.536               28.79               
O              24.096              4.31                28.734              
C              21.79               5.895               29.832              
O              22.385              6.272               31.056              
H              21.344              5.168               27.325              
H              22.896              7.242               28.639              
H              20.93               6.378               29.723              
H              21.645              4.913               29.827              
H              21.818              5.955               31.816              
N              25.11               6.298               28.967              
C              26.436              5.727               29.086              
C              27.23               6.348               30.226              
O              26.91               7.428               30.721              
C              27.269              5.945               27.783              
C              27.435              7.454               27.515              
C              26.566              5.269               26.589              
C              28.679              7.836               26.774              
H              24.916              7.319               29.012              
H              26.309              4.753               29.323              
H              28.166              5.558               27.933              
H              26.63               7.764               26.999              
H              27.424              7.922               28.405              
H              27.118              5.401               25.771              
H              26.468              4.297               26.779              
H              25.67               5.683               26.464              
H              28.692              7.387               25.879              
H              28.705              8.829               26.644              
H              29.485              7.551               27.296              
N              28.283              5.653               30.623              
C              29.184              6.142               31.647              
C              30.609              5.965               31.116              
O              30.989              4.87                30.698              
C              29.046              5.381               33.002              
O              27.726              5.546               33.533              
C              30.038              5.935               34.007              
H              28.406              4.736               30.141              
H              29.024              7.112               31.786              
H              29.202              4.387               32.828              
H              29.706              5.775               34.94               
H              30.927              5.484               33.895              
H              30.153              6.922               33.866              
H              27.765              5.696               34.527              
N              31.347              7.066               31.01               
C              32.735              7.013               30.585              
C              33.586              6.943               31.829              
O              33.331              7.664               32.791              
C              33.13               8.264               29.828              
C              32.53               8.314               28.469              
O              32.815              7.408               27.666              
O              31.76               9.26                28.213              
H              30.852              7.946               31.253              
H              32.861              6.158               30.089              
H              32.82               9.051               30.354              
H              34.123              8.275               29.751              
N              34.595              6.087               31.801              
C              35.515              5.933               32.917              
C              36.879              6.305               32.375              
O              37.347              5.7                 31.424              
C              35.527              4.49                33.409              
S              33.941              3.928               34.087              
H              34.673              5.537               30.917              
H              35.269              6.582               33.62               
H              35.763              3.899               32.642              
H              36.216              4.409               34.125              
N              37.51               7.305               32.971              
C              38.81               7.754               32.504              
C              39.746              7.79                33.693              
O              39.395              8.303               34.764              
C              38.68               9.135               31.86               
C              39.942              9.64                31.178              
C              39.689              10.914              30.35               
N              39.02               10.648              29.069              
C              39.653              10.409              27.915              
N              40.982              10.399              27.856              
N              38.956              10.176              26.806              
H              37.01               7.725               33.775              
H              39.16               7.101               31.836              
H              37.955              9.093               31.175              
H              38.432              9.789               32.572              
H              40.632              9.858               31.865              
H              40.292              8.942               30.557              
H              39.12               11.524              30.899              
H              40.574              11.343              30.177              
H              38.013              10.646              29.059              
H              41.526              10.55               28.679              
H              41.44               10.237              26.979              
H              37.954              10.162              26.851              
H              39.423              10.016              25.942              
N              40.922              7.206               33.509              
C              41.926              7.111               34.559              
C              42.463              8.474               35.015              
O              42.972              9.25                34.203              
C              43.062              6.221               34.067              
C              43.951              5.676               35.157              
C              45.194              4.991               34.613              
O              45.506              5.153               33.411              
O              45.872              4.297               35.394              
H              41.066              6.82                32.547              
H              41.535              6.626               35.362              
H              42.657              5.453               33.595              
H              43.624              6.761               33.46               
H              44.252              6.424               35.721              
H              43.447              5.004               35.669              
N              42.324              8.762               36.309              
C              42.79               10.026              36.893              
C              44.309              10.023              36.955              
O              44.923              8.97                37.129              
C              42.278              10.219              38.328              
O              42.891              9.249               39.186              
C              40.767              10.061              38.388              
H              41.858              8.017               36.87               
H              42.496              10.775              36.299              
H              42.549              11.147              38.653              
H              40.532              9.113               38.617              
H              40.388              10.671              39.088              
H              40.365              10.293              37.499              
H              42.612              8.32                38.92               
N              44.91               11.205              36.899              
C              46.363              11.308              36.925              
C              47.052              10.639              38.102              
O              48.155              10.116              37.963              
H              44.276              12.02               36.837              
H              46.74               10.916              36.052              
H              46.626              12.302              36.906              
N              46.394              10.643              39.254              
C              46.937              10.046              40.466              
C              46.824              8.523               40.509              
O              47.343              7.879               41.424              
C              46.206              10.638              41.656              
O              44.849              10.865              41.31               
H              45.459              11.108              39.217              
H              47.926              10.282              40.517              
H              46.243              10                  42.412              
H              46.624              11.502              41.899              
H              44.462              10.031              40.919              
N              46.097              7.957               39.551              
C              45.904              6.522               39.476              
C              47.247              5.871               39.221              
O              47.993              6.313               38.358              
C              44.942              6.205               38.345              
O              44.83               4.821               38.131              
H              45.684              8.629               38.869              
H              45.568              6.203               40.361              
H              44.041              6.575               38.574              
H              45.275              6.639               37.507              
H              44.89               4.623               37.151              
N              47.547              4.818               39.973              
C              48.81               4.105               39.837              
C              49.816              4.646               40.876              
C              50.802              3.638               41.471              
C              50.24               3.017               42.777              
C              51.109              1.883               43.313              
N              50.422              1.171               44.422              
H              46.81               4.55                40.659              
H              49.179              4.266               38.919              
H              50.347              5.38                40.436              
H              49.287              5.051               41.633              
H              50.957              2.904               40.819              
H              51.655              4.098               41.687              
H              50.189              3.736               43.464              
H              49.329              2.662               42.585              
H              51.294              1.241               42.571              
H              51.969              2.266               43.647              
H              51.092              0.918               45.12               
H              49.731              1.771               44.824              
H              49.983              0.346               44.066              
H              22.5753             4.57395             17.0647             
H              36.1255             2.76096             40.2591             
H              48.6384             3.03428             39.9648             
H              27.3746             6.69231             41.3977             
