284
2.xyz
C              37.13               -5.107              39.03               
O              37.733              -6.125              38.682              
N              35.814              -5.077              39.227              
C              34.988              -6.277              39.135              
C              34.878              -6.942              37.764              
O              34.622              -8.148              37.685              
C              33.586              -6.029              39.71               
O              32.957              -4.91               39.11               
H              35.43               -4.135              39.45               
H              35.38               -6.975              39.785              
H              33.028              -6.841              39.55               
H              33.669              -5.867              40.692              
H              33.403              -4.071              39.419              
N              35.037              -6.157              36.699              
C              34.964              -6.682              35.333              
C              36.333              -7.154              34.86               
O              36.505              -7.501              33.704              
C              34.383              -5.627              34.38               
C              32.935              -5.238              34.709              
C              32.035              -6.477              34.744              
N              30.62               -6.17               34.995              
C              29.744              -5.803              34.06               
N              30.12               -5.69               32.781              
N              28.491              -5.534              34.402              
H              35.214              -5.158              36.917              
H              34.331              -7.464              35.322              
H              34.939              -4.809              34.442              
H              34.397              -5.995              33.46               
H              32.905              -4.808              35.601              
H              32.592              -4.627              34.009              
H              32.118              -6.941              33.861              
H              32.373              -7.08               35.468              
H              30.289              -6.243              35.945              
H              31.055              -5.899              32.512              
H              29.453              -5.395              32.095              
H              28.204              -5.627              35.358              
H              27.833              -5.241              33.711              
N              37.308              -7.149              35.771              
C              38.676              -7.581              35.495              
C              39.483              -6.735              34.543              
O              40.445              -7.211              33.928              
C              38.688              -9.007              35.003              
C              39.114              -9.954              36.065              
H              37.003              -6.803              36.716              
H              39.172              -7.576              36.399              
H              37.767              -9.246              34.702              
H              39.322              -9.071              34.234              
O              40.318              -10.153             36.285              
N              38.145              -10.515             36.786              
H              37.189              -10.294             36.593              
H              38.373              -11.156             37.517              
N              39.17               -5.448              34.517              
C              39.836              -4.53               33.611              
C              41.128              -3.908              34.161              
O              41.807              -3.159              33.455              
C              38.83               -3.459              33.168              
C              37.509              -4.055              32.657              
C              36.518              -2.975              32.329              
C              37.767              -4.916              31.441              
H              38.428              -5.163              35.183              
H              40.074              -5.033              32.754              
H              38.619              -2.898              33.945              
H              39.23               -2.951              32.431              
H              37.137              -4.657              33.368              
H              36.889              -2.373              31.617              
H              35.663              -3.382              31.997              
H              36.322              -2.428              33.147              
H              38.392              -5.662              31.68               
H              36.904              -5.303              31.11               
H              38.179              -4.362              30.714              
N              41.474              -4.241              35.404              
C              42.684              -3.714              36.032              
C              43.625              -4.842              36.491              
O              44.61               -4.605              37.199              
C              42.345              -2.813              37.244              
O              41.592              -3.558              38.212              
C              41.539              -1.602              36.803              
H              40.822              -4.894              35.877              
H              43.179              -3.152              35.357              
H              43.217              -2.512              37.681              
H              41.471              -1.584              35.803              
H              40.617              -1.646              37.194              
H              41.988              -0.762              37.116              
H              40.637              -3.654              37.912              
N              43.339              -6.061              36.054              
C              44.131              -7.219              36.443              
C              45.569              -7.257              35.902              
O              46.487              -7.67               36.605              
C              43.391              -8.506              36.061              
C              43.778              -9.72               36.894              
C              43.543              -11.003             36.127              
C              44.423              -11.046             34.885              
N              44.245              -12.293             34.098              
H              42.516              -6.116              35.422              
H              44.178              -7.255              37.468              
H              42.412              -8.347              36.174              
H              43.59               -8.706              35.103              
H              44.746              -9.654              37.132              
H              43.227              -9.731              37.727              
H              43.775              -11.774             36.704              
H              42.595              -11.044             35.842              
H              44.201              -10.253             34.304              
H              45.387              -10.968             35.169              
H              44.196              -13.075             34.72               
H              43.399              -12.234             33.568              
H              45.02               -12.409             33.477              
N              45.764              -6.868              34.651              
C              47.102              -6.889              34.074              
C              47.782              -5.536              34.173              
O              49.004              -5.435              34.139              
C              47.05               -7.351              32.611              
C              46.931              -8.874              32.472              
O              46.92               -9.591              33.508              
O              46.87               -9.354              31.314              
H              44.922              -6.562              34.143              
H              47.651              -7.539              34.62               
H              46.258              -6.935              32.184              
H              47.885              -7.06               32.165              
N              46.965              -4.501              34.289              
C              47.43               -3.128              34.392              
C              46.156              -2.302              34.444              
O              45.065              -2.861              34.374              
C              48.249              -2.753              33.16               
C              47.423              -2.607              31.916              
C              48.283              -2.398              30.705              
N              47.44               -2.039              29.578              
C              47.171              -0.789              29.222              
N              47.698              0.228               29.9                
N              46.324              -0.559              28.222              
H              45.946              -4.758              34.3                
H              47.921              -3.012              35.236              
H              48.702              -1.886              33.344              
H              48.925              -3.468              33.01               
H              46.876              -3.434              31.776              
H              46.813              -1.819              32.008              
H              48.916              -1.662              30.889              
H              48.757              -3.242              30.505              
H              47.034              -2.781              29.033              
H              48.313              0.07                30.666              
H              47.471              1.171               29.632              
H              45.911              -1.328              27.732              
H              46.102              0.378               27.96               
N              46.272              -0.99               34.572              
C              45.071              -0.169              34.607              
C              44.63               0.234               33.193              
O              45.381              0.912               32.472              
C              45.309              1.1                 35.421              
S              46.063              0.858               37.057              
H              47.226              -0.626              34.64               
H              44.326              -0.708              35.019              
H              45.909              1.705               34.889              
H              44.424              1.557               35.552              
N              43.454              -0.225              32.765              
C              42.945              0.167               31.456              
C              41.686              -0.625              31.099              
C              41.193              -0.287              29.718              
C              40.021              -1.128              29.254              
C              39.683              -0.753              27.8                
N              38.478              -1.435              27.231              
H              42.961              -0.852              33.413              
H              43.649              0.056               30.784              
H              41.908              -1.588              31.134              
H              40.982              -0.397              31.757              
H              40.917              0.689               29.694              
H              41.953              -0.401              29.056              
H              40.27               -2.079              29.276              
H              39.235              -0.934              29.811              
H              39.545              0.251               27.754              
H              40.488              -0.969              27.22               
H              37.743              -1.418              27.906              
H              38.189              -0.954              26.405              
H              38.711              -2.38               27.008              
C              49.132              3.752               40.108              
C              48.883              2.28                40.275              
O              48.44               1.853               41.332              
C              50.135              4.213               41.172              
C              51.085              5.318               40.711              
C              51.974              4.873               39.539              
C              52.64               6.068               38.842              
N              53.336              5.674               37.584              
H              49.495              3.925               39.195              
H              49.622              4.552               41.959              
H              50.684              3.424               41.446              
H              50.547              6.111               40.419              
H              51.675              5.583               41.475              
H              52.686              4.276               39.889              
H              51.411              4.396               38.875              
H              51.933              6.749               38.631              
H              53.304              6.477               39.474              
H              52.671              5.624               36.84               
H              54.034              6.355               37.365              
H              53.767              4.781               37.71               
N              49.136              1.501               39.233              
C              48.933              0.062               39.311              
C              49.718              -0.462              40.514              
O              50.868              -0.067              40.727              
C              49.415              -0.613              38.026              
C              49.23               -2.121              37.998              
C              48.054              -2.69               37.517              
C              50.247              -2.98               38.426              
C              47.89               -4.074              37.459              
C              50.092              -4.368              38.368              
C              48.912              -4.906              37.88               
O              48.772              -6.271              37.79               
H              49.479              1.989               38.389              
H              47.967              -0.116              39.472              
H              48.908              -0.225              37.258              
H              50.389              -0.421              37.916              
H              47.308              -2.098              37.206              
H              51.097              -2.598              38.777              
H              47.033              -4.461              37.112              
H              50.829              -4.965              38.678              
H              47.91               -6.483              37.333              
N              49.136              -1.407              41.279              
C              47.811              -2.019              41.107              
C              46.619              -1.247              41.69               
O              45.504              -1.767              41.726              
C              47.986              -3.368              41.798              
C              48.84               -3.012              42.955              
C              49.889              -2.099              42.338              
H              47.644              -2.222              40.111              
H              47.107              -3.729              42.093              
H              48.441              -4.016              41.196              
H              48.322              -2.524              43.651              
H              49.27               -3.819              43.348              
H              50.237              -1.45               43.008              
H              50.641              -2.627              41.952              
N              46.866              -0.034              42.178              
C              45.812              0.807               42.751              
C              45.305              1.721               41.647              
O              45.671              2.901               41.57               
C              46.342              1.665               43.911              
C              47.234              0.884               44.863              
H              47.862              0.264               42.119              
H              45.062              0.206               43.004              
H              46.869              2.418               43.527              
H              45.562              2.016               44.421              
O              48.469              0.961               44.786              
N              46.617              0.108               45.749              
H              45.617              0.059               45.757              
H              47.148              -0.426              46.405              
N              44.494              1.158               40.766              
C              43.938              1.917               39.662              
C              42.821              2.84                40.158              
O              41.989              2.444               40.971              
C              43.441              0.95                38.595              
S              44.714              -0.253              38.079              
H              44.297              0.152               40.931              
H              44.662              2.494               39.271              
H              42.673              0.441               38.959              
H              43.174              1.47                37.795              
N              42.819              4.073               39.669              
C              41.835              5.064               40.077              
C              41.18               5.682               38.86               
O              41.852              6.006               37.879              
C              42.482              6.137               40.922              
H              43.573              4.267               38.977              
H              41.128              4.61                40.631              
H              41.933              6.974               40.887              
H              42.548              5.827               41.872              
H              43.401              6.333               40.577              
N              39.868              5.891               38.971              
C              39.055              6.424               37.889              
C              38.24               5.287               37.251              
C              39.082              4.193               36.654              
C              39.534              3.132               37.441              
C              39.48               4.243               35.311              
C              40.367              2.156               36.909              
C              40.312              3.267               34.772              
C              40.748              2.229               35.579              
O              41.544              1.238               35.064              
H              39.475              5.637               39.909              
H              39.689              6.81                37.179              
H              37.659              4.891               37.958              
H              37.675              5.681               36.53               
H              39.256              3.074               38.398              
H              39.159              4.99                34.735              
H              40.69               1.402               37.485              
H              40.591              3.315               33.817              
H              41.712              1.419               34.096              
H              42.7267             1.24131             31.5659             
H              38.3512             7.20891             38.1705             
H              37.6507             -4.18147            39.1528             
H              48.2025             4.25279             40.2077             
