311
2.xyz
C              8.59                23.539              11.874              
C              7.392               22.623              11.702              
O              7.008               21.918              12.64               
C              9.771               22.738              12.428              
C              10.308              21.7                11.466              
C              11.065              22.342              10.318              
O              12.284              22.547              10.455              
O              10.448              22.66               9.286               
H              8.833               23.943              10.994              
H              10.496              23.373              12.622              
H              9.461               22.27               13.235              
H              10.935              21.124              11.948              
H              9.553               21.208              11.083              
N              6.808               22.624              10.517              
C              5.639               21.799              10.26               
C              5.883               20.588              9.357               
O              6.843               20.541              8.574               
C              4.529               22.677              9.662               
H              7.241               23.243              9.81                
H              5.277               21.458              11.156              
H              4.544               23.57               10.105              
H              4.687               22.783              8.683               
H              3.647               22.239              9.816               
N              5.045               19.572              9.52                
C              5.111               18.41               8.647               
C              3.688               18.089              8.234               
O              2.784               18.016              9.077               
C              5.732               17.189              9.309               
C              5.796               15.989              8.348               
C              6.399               14.753              9.002               
H              4.368               19.676              10.292              
H              5.619               18.662              7.832               
H              6.659               17.401              9.588               
H              5.181               16.921              10.089              
H              4.87                15.774              8.051               
H              6.356               16.243              7.565               
O              5.712               13.741              9.21                
N              7.679               14.837              9.355               
H              8.144               14.057              9.809               
H              8.186               15.699              9.161               
N              3.486               18.004              6.928               
C              2.178               17.695              6.355               
C              2.439               16.56               5.379               
O              3.554               16.04               5.302               
C              1.614               18.901              5.536               
O              2.535               19.254              4.494               
C              1.408               20.107              6.415               
H              4.335               18.175              6.344               
H              1.588               17.367              7.071               
H              0.736               18.613              5.107               
H              2.232               20.282              6.963               
H              1.216               20.918              5.853               
H              0.633               19.955              7.037               
H              3.477               19.046              4.776               
N              1.425               16.243              4.581               
C              1.517               15.211              3.54                
C              2.346               15.733              2.352               
O              2.614               14.994              1.405               
C              0.121               14.835              3.037               
C              -1.019              15.271              3.94                
C              -1.374              16.758              3.759               
C              -2.331              17.212              4.847               
N              -1.735              16.968              6.183               
H              0.551               16.791              4.755               
H              1.976               14.406              3.919               
H              -0.01               15.257              2.139               
H              0.084               13.838              2.941               
H              -1.834              14.726              3.732               
H              -0.761              15.124              4.897               
H              -0.541              17.288              3.82                
H              -1.809              16.872              2.879               
H              -2.509              18.187              4.736               
H              -3.183              16.7                4.765               
H              -0.751              16.813              6.087               
H              -1.891              17.764              6.769               
H              -2.16               16.162              6.596               
N              2.72                17.015              2.404               
C              3.5                 17.664              1.353               
C              4.961               17.781              1.732               
O              5.777               18.194              0.922               
C              2.973               19.076              1.073               
C              1.562               19.076              0.518               
H              2.403               17.515              3.268               
H              3.448               17.07               0.538               
H              2.98                19.588              1.928               
H              3.577               19.509              0.409               
O              0.645               19.618              1.134               
N              1.381               18.475              -0.655              
H              2.161               18.048              -1.117              
H              0.476               18.448              -1.072              
N              5.282               17.477              2.978               
C              6.655               17.577              3.416               
C              6.791               18.405              4.681               
O              5.828               18.561              5.442               
H              4.5                 17.177              3.578               
H              7.027               16.649              3.585               
H              7.216               17.996              2.684               
N              7.984               18.977              4.854               
C              8.335               19.786              6.018               
C              8.8                 21.179              5.623               
O              9.316               21.403              4.526               
C              9.487               19.141              6.795               
C              9.201               17.807              7.453               
C              10.309              17.409              8.395               
H              8.659               18.792              4.068               
H              7.505               19.886              6.587               
H              10.268              19.017              6.161               
H              9.786               19.789              7.517               
H              8.352               17.879              7.968               
H              9.115               17.112              6.745               
O              11.258              18.166              8.603               
N              10.22               16.206              8.947               
H              10.937              15.863              9.582               
H              9.413               15.622              8.725               
N              8.663               22.101              6.557               
C              9.097               23.459              6.317               
C              8.526               24.366              7.376               
O              7.644               23.973              8.142               
H              8.234               21.777              7.441               
H              10.1                23.503              6.341               
H              8.783               23.759              5.411               
N              9.037               25.581              7.425               
C              8.582               26.556              8.398               
C              7.302               27.256              7.967               
O              7.118               27.553              6.795               
C              9.701               27.565              8.659               
C              10.923              26.919              9.264               
C              11.979              26.373              8.594               
C              11.178              26.702              10.664              
N              12.866              25.824              9.489               
C              12.398              26.008              10.764              
C              10.487              27.028              11.843              
C              12.95               25.632              12                  
C              11.035              26.657              13.07               
C              12.257              25.966              13.135              
H              9.778               25.775              6.721               
H              8.382               26.063              9.261               
H              9.979               27.97               7.804               
H              9.383               28.244              9.3                 
H              12.093              26.371              7.604               
H              13.721              25.361              9.249               
H              9.62                27.517              11.81               
H              13.822              25.136              12.03               
H              10.551              26.886              13.905              
H              12.62               25.718              14.033              
N              6.407               27.485              8.924               
C              5.137               28.171              8.709               
C              4.935               29.12               9.902               
O              5.567               28.931              10.952              
C              3.97                27.165              8.622               
C              4.265               26.131              7.551               
C              3.729               26.489              9.984               
H              6.699               27.122              9.871               
H              5.211               28.725              7.892               
H              3.164               27.665              8.333               
H              4.317               25.222              7.966               
H              3.537               26.14               6.865               
H              5.138               26.343              7.11                
H              4.218               25.62               10.002              
H              4.068               27.089              10.705              
H              2.751               26.335              10.097              
N              4.157               30.207              9.733               
C              3.949               31.127              10.867              
C              3.247               30.405              12.019              
O              2.254               29.702              11.802              
C              3.026               32.2                10.275              
C              3.376               32.199              8.821               
C              3.501               30.722              8.514               
H              4.821               31.519              11.169              
H              2.068               31.955              10.413              
H              3.209               33.09               10.688              
H              2.651               32.611              8.283               
H              4.238               32.666              8.665               
H              2.609               30.301              8.391               
H              4.072               30.565              7.715               
N              3.727               30.598              13.242              
C              3.1                 29.936              14.382              
C              1.664               30.406              14.608              
O              0.792               29.607              14.944              
C              3.929               30.152              15.634              
O              5.206               29.59               15.44               
H              4.538               31.223              13.311              
H              3.073               28.943              14.191              
H              4.021               31.123              15.798              
H              3.487               29.701              16.396              
H              5.868               30.042              16.039              
N              1.399               31.685              14.38               
C              0.043               32.189              14.589              
C              -0.937              31.856              13.466              
O              -2.065              32.349              13.467              
C              0.038               33.689              14.887              
C              0.695               34.501              13.804              
H              2.185               32.258              14.062              
H              -0.313              31.742              15.433              
H              -0.911              33.985              14.983              
H              0.527               33.838              15.745              
O              0.858               34.042              12.666              
N              1.068               35.737              14.14               
H              0.911               36.071              15.068              
H              1.505               36.327              13.462              
N              -0.49               31.068              12.485              
C              -1.353              30.63               11.391              
C              -1.925              29.237              11.686              
O              -2.709              28.709              10.896              
C              -0.587              30.566              10.059              
C              -0.619              31.833              9.246               
C              -0.382              33.077              9.845               
C              -0.89               31.797              7.888               
C              -0.421              34.248              9.11                
C              -0.926              32.973              7.141               
C              -0.693              34.191              7.761               
O              -0.751              35.353              7.028               
H              0.51                30.799              12.568              
H              -2.122              31.27               11.317              
H              0.368               30.345              10.264              
H              -0.986              29.829              9.511               
H              -0.181              33.115              10.827              
H              -1.06               30.927              7.437               
H              -0.251              35.129              9.556               
H              -1.12               32.937              6.161               
H              -1.202              35.169              6.157               
N              -1.513              28.622              12.788              
C              -1.996              27.284              13.118              
C              -2.588              27.236              14.519              
O              -2.329              28.12               15.348              
C              -0.881              26.216              12.986              
C              0.217               26.476              14.019              
C              -0.306              26.214              11.558              
C              1.252               25.392              14.102              
H              -0.847              29.152              13.369              
H              -2.75               27.091              12.479              
H              -1.285              25.332              13.179              
H              0.664               27.342              13.789              
H              -0.22               26.579              14.915              
H              0.382               25.497              11.486              
H              -1.043              26.043              10.911              
H              0.108               27.101              11.373              
H              1.704               25.289              13.215              
H              1.934               25.63               14.795              
H              0.815               24.527              14.352              
N              -3.438              26.241              14.751              
C              -4.098              26.054              16.055              
C              -4.337              24.538              16.194              
O              -4.34               23.809              15.203              
C              -5.442              26.844              16.104              
O              -5.835              27.085              17.461              
C              -6.547              26.069              15.392              
H              -3.6                25.607              13.942              
H              -3.479              26.336              16.766              
H              -5.301              27.746              15.644              
H              -6.146              25.474              14.693              
H              -7.047              25.508              16.055              
H              -7.182              26.71               14.956              
H              -6.529              26.417              17.748              
N              -4.476              24.026              17.423              
C              -4.704              22.579              17.573              
C              -5.995              22.103              16.901              
O              -7.036              22.749              17.01               
C              -4.754              22.401              19.093              
C              -3.824              23.505              19.57               
C              -4.302              24.666              18.737              
H              -3.908              22.057              17.223              
H              -5.669              22.546              19.44               
H              -4.406              21.515              19.362              
H              -3.959              23.671              20.531              
H              -2.889              23.273              19.363              
H              -5.165              25.023              19.071              
H              -3.62               25.386              18.69               
N              -5.906              20.995              16.178              
C              -7.064              20.447              15.486              
C              -8.132              20.176              16.556              
O              -7.833              19.572              17.591              
C              -6.681              19.144              14.682              
C              -6.863              17.886              15.519              
C              -7.464              19.05               13.394              
H              -4.963              20.564              16.149              
H              -7.421              21.135              14.87               
H              -5.712              19.219              14.459              
H              -7.446              18.09               16.306              
H              -7.292              17.174              14.963              
H              -5.971              17.566              15.839              
H              -8.295              18.512              13.545              
H              -7.715              19.969              13.086              
H              -6.904              18.606              12.692              
N              -9.331              20.72               16.35               
C              -10.461             20.542              17.279              
C              -10.435             21.39               18.557              
O              -10.896             20.936              19.614              
C              -10.658             19.052              17.635              
C              -10.932             18.157              16.451              
H              -9.406              21.284              15.475              
H              -11.307             20.809              16.765              
H              -9.825              18.735              18.096              
H              -11.429             18.99               18.275              
O              -9.993              17.693              15.785              
N              -12.206             17.891              16.185              
H              -12.926             18.287              16.76               
H              -12.447             17.301              15.418              
N              -9.908              22.61               18.435              
C              -9.827              23.585              19.527              
C              -9.608              22.981              20.905              
O              -8.45               22.613              21.191              
C              -11.07              24.478              19.526              
O              -10.589             22.882              21.674              
O              -11.242             25.183              18.321              
H              -9.547              22.819              17.467              
H              -9.04               24.204              19.328              
H              -11.877             23.901              19.687              
H              -10.989             25.135              20.282              
H              -10.349             25.368              17.907              
H              8.33087             24.2975             12.5611             
