319
0.xyz
N              50.744              6.178               10.823              
C              50.929              7.009               12.047              
C              49.675              6.853               12.917              
O              48.576              7.154               12.454              
C              51.131              8.476               11.653              
C              51.41               9.415               12.821              
C              52.793              9.104               13.384              
C              51.314              10.86               12.364              
H              51.554              6.259               10.248              
H              51.709              6.656               12.545              
H              51.907              8.521               11.04               
H              50.305              8.787               11.208              
H              50.727              9.272               13.527              
H              53.48               9.238               12.67               
H              52.985              9.715               14.151              
H              52.818              8.155               13.699              
H              50.394              11.041              12.011              
H              51.498              11.47               13.136              
H              51.985              11.029              11.641              
H              50.614              5.227               11.091              
H              49.943              6.502               10.326              
N              49.862              6.352               14.143              
C              48.805              6.081               15.142              
C              47.34               6.203               14.724              
O              46.667              7.194               15.032              
C              49.032              6.879               16.431              
C              48.732              6.059               17.718              
C              48.751              6.883               19.013              
O              48.789              8.135               18.933              
O              48.708              6.29                20.115              
H              50.885              6.152               14.357              
H              48.964              5.129               15.532              
H              49.974              7.135               16.471              
H              48.422              7.641               16.432              
H              47.831              5.675               17.623              
H              49.424              5.364               17.798              
N              46.821              5.182               14.025              
C              45.425              5.22                13.588              
C              44.486              4.852               14.728              
O              44.924              4.379               15.79               
C              45.38               4.156               12.493              
C              46.837              3.962               12.1                
C              47.523              4.05                13.414              
H              45.193              6.125               13.211              
H              44.998              3.299               12.838              
H              44.849              4.468               11.707              
H              46.954              3.073               11.678              
H              47.116              4.687               11.485              
H              47.397              3.226               13.956              
H              48.494              4.251               13.316              
N              43.195              5.087               14.505              
C              42.157              4.762               15.486              
C              42.065              3.231               15.552              
O              42.497              2.545               14.615              
C              40.802              5.33                15.039              
C              40.697              6.841               15.014              
C              41.31               7.477               13.776              
O              41.861              6.763               12.915              
O              41.225              8.721               13.662              
H              42.987              5.519               13.58               
H              42.407              5.117               16.375              
H              40.633              5                   14.12               
H              40.116              4.99                15.668              
H              39.741              7.087               15.029              
H              41.177              7.202               15.798              
N              41.466              2.673               16.608              
C              41.39               1.219               16.663              
C              40.54               0.607               15.559              
O              40.747              -0.548              15.171              
C              40.841              0.957               18.064              
C              40.104              2.184               18.393              
C              40.948              3.272               17.836              
H              42.326              0.812               16.658              
H              40.238              0.153               18.058              
H              41.592              0.792               18.709              
H              39.193              2.181               17.97               
H              39.996              2.283               19.387              
H              40.411              4.091               17.63               
H              41.698              3.515               18.454              
N              39.622              1.401               15.024              
C              38.749              0.953               13.957              
C              39.197              1.342               12.558              
O              38.544              1.005               11.567              
C              37.307              1.433               14.196              
C              37.214              2.86                14.642              
C              36.863              3.29                15.877              
C              37.445              4.046               13.852              
N              36.84               4.66                15.918              
C              37.195              5.158               14.692              
C              37.831              4.282               12.526              
C              37.309              6.492               14.251              
C              37.943              5.616               12.085              
C              37.682              6.7                 12.952              
H              39.586              2.359               15.433              
H              38.717              -0.069              13.992              
H              36.8                1.352               13.347              
H              36.898              0.872               14.905              
H              36.648              2.696               16.657              
H              36.601              5.214               16.719              
H              38.025              3.538               11.9                
H              37.117              7.245               14.886              
H              38.21               5.786               11.146              
H              37.776              7.627               12.596              
N              40.334              2.007               12.441              
C              40.755              2.386               11.118              
C              41.779              1.43                10.537              
O              42.873              1.275               11.077              
C              41.24               3.84                11.097              
C              41.491              4.375               9.717               
C              40.46               4.422               8.78                
C              42.76               4.771               9.335               
C              40.697              4.846               7.487               
C              43.013              5.199               8.038               
C              41.983              5.235               7.11                
H              40.835              2.206               13.302              
H              39.939              2.337               10.517              
H              40.541              4.396               11.52               
H              42.089              3.881               11.602              
H              39.54               4.147               9.048               
H              43.508              4.751               10.001              
H              39.945              4.873               6.82                
H              43.949              5.481               7.777               
H              42.153              5.537               6.175               
N              41.356              0.728               9.492               
C              42.185              -0.239              8.772               
C              42.451              0.288               7.381               
O              41.857              -0.186              6.401               
C              41.492              -1.608              8.72                
C              41.451              -2.299              10.057              
C              40.687              -1.783              11.096              
C              42.211              -3.437              10.29               
C              40.693              -2.376              12.346              
C              42.229              -4.025              11.528              
C              41.458              -3.492              12.559              
H              40.359              0.928               9.22                
H              43.063              -0.276              9.247               
H              40.565              -1.465              8.421               
H              41.998              -2.178              8.096               
H              40.124              -0.974              10.94               
H              42.749              -3.828              9.539               
H              40.136              -1.979              13.086              
H              42.801              -4.844              11.698              
H              41.468              -3.934              13.461              
N              43.39               1.234               7.304               
C              43.774              1.917               6.071               
C              43.771              1.148               4.762               
O              42.997              1.459               3.844               
C              45.142              2.601               6.216               
C              45.423              3.621               5.106               
C              46.791              4.294               5.236               
C              47.05               5.292               4.113               
N              46.96               4.679               2.761               
H              43.842              1.452               8.234               
H              43.15               2.747               5.96                
H              45.163              3.076               7.086               
H              45.845              1.902               6.181               
H              45.378              3.152               4.218               
H              44.711              4.33                5.131               
H              46.826              4.778               6.106               
H              47.497              3.592               5.206               
H              46.377              6.039               4.183               
H              47.97               5.686               4.237               
H              46.446              3.824               2.818               
H              46.493              5.309               2.141               
H              47.881              4.493               2.419               
N              44.636              0.144               4.683               
C              44.788              -0.628              3.459               
C              44.107              -1.97               3.387               
O              44.372              -2.754              2.489               
C              46.274              -0.767              3.112               
C              46.852              0.534               2.589               
H              45.179              -0.036              5.548               
H              44.395              -0.049              2.696               
H              46.765              -1.026              3.934               
H              46.368              -1.463              2.411               
O              46.847              0.782               1.386               
N              47.268              1.405               3.496               
H              47.197              1.183               4.471               
H              47.654              2.283               3.213               
N              43.224              -2.241              4.329               
C              42.521              -3.504              4.327               
C              41.455              -3.488              3.231               
O              40.717              -2.521              3.056               
C              41.911              -3.755              5.697               
C              41.66               -5.206              6.124               
C              42.961              -5.995              6.132               
C              41.029              -5.215              7.518               
H              43.087              -1.502              5.036               
H              43.168              -4.24               4.122               
H              42.521              -3.349              6.387               
H              41.025              -3.282              5.734               
H              41.02               -5.626              5.481               
H              43.603              -5.575              6.774               
H              42.779              -6.938              6.412               
H              43.359              -5.992              5.214               
H              40.164              -4.716              7.492               
H              40.864              -6.159              7.8                 
H              41.651              -4.775              8.165               
N              41.437              -4.551              2.448               
C              40.491              -4.679              1.382               
C              39.118              -5.072              1.95                
O              38.987              -5.421              3.125               
C              40.978              -5.748              0.417               
O              41.071              -7.011              1.083               
H              42.16               -5.269              2.676               
H              40.381              -3.789              0.931               
H              40.334              -5.832              -0.332              
H              41.878              -5.501              0.081               
H              41.325              -7.711              0.421               
N              38.115              -5.002              1.081               
C              36.752              -5.363              1.394               
C              36.683              -6.828              1.823               
O              36.07               -7.147              2.833               
C              35.882              -5.149              0.145               
C              34.444              -5.62               0.305               
C              33.781              -5.993              -1.014              
N              32.896              -4.95               -1.504              
C              31.565              -4.935              -1.406              
N              30.896              -5.924              -0.845              
N              30.907              -3.87               -1.824              
H              38.409              -4.654              0.128               
H              36.424              -4.795              2.155               
H              35.869              -4.176              -0.059              
H              36.292              -5.654              -0.607              
H              34.423              -6.427              0.902               
H              33.9                -4.89               0.728               
H              34.503              -6.159              -1.684              
H              33.259              -6.832              -0.867              
H              33.328              -4.15               -1.969              
H              31.389              -6.708              -0.459              
H              29.896              -5.897              -0.801              
H              31.396              -3.077              -2.19               
H              29.903              -3.848              -1.775              
N              37.339              -7.703              1.058               
C              37.336              -9.151              1.309               
C              37.939              -9.567              2.647               
O              37.339              -10.346             3.376               
C              37.966              -9.901              0.121               
C              36.946              -10.204             -1                  
C              37.608              -10.492             -2.355              
C              36.617              -10.807             -3.492              
N              36.203              -12.251             -3.654              
H              37.859              -7.27               0.26                
H              36.369              -9.48               1.272               
H              38.682              -9.337              -0.262              
H              38.325              -10.762             0.449               
H              36.404              -11.003             -0.73               
H              36.337              -9.414              -1.1                
H              38.147              -9.69               -2.625              
H              38.223              -11.278             -2.251              
H              35.777              -10.245             -3.349              
H              37.026              -10.489             -4.371              
H              35.604              -12.499             -2.898              
H              35.722              -12.351             -4.52               
H              37.02               -12.821             -3.647              
N              39.075              -8.979              3.015               
C              39.707              -9.297              4.292               
C              38.951              -8.642              5.436               
O              38.972              -9.141              6.554               
C              41.174              -8.866              4.3                 
C              42.005              -9.665              3.343               
O              41.488              -10.649             2.796               
O              43.171              -9.316              3.128               
H              39.458              -8.299              2.338               
H              39.635              -10.292             4.419               
H              41.209              -7.907              4.043               
H              41.522              -8.992              5.221               
N              38.291              -7.515              5.156               
C              37.495              -6.832              6.184               
C              36.415              -7.797              6.641               
O              36.168              -7.929              7.828               
C              36.856              -5.548              5.641               
H              38.386              -7.178              4.187               
H              38.085              -6.617              6.954               
H              37.198              -4.767              6.159               
H              37.095              -5.444              4.678               
H              35.865              -5.608              5.737               
N              35.78               -8.467              5.678               
C              34.733              -9.473              5.949               
C              35.367              -10.637             6.712               
O              34.886              -11.051             7.759               
C              34.131              -9.998              4.64                
C              33.286              -9.01               3.857               
C              32.717              -9.558              2.555               
O              32.795              -10.779             2.311               
O              32.187              -8.801              1.738               
H              36.084              -8.222              4.709               
H              34.013              -9.063              6.498               
H              34.884              -10.277             4.058               
H              33.555              -10.772             4.867               
H              32.52               -8.74               4.422               
H              33.85               -8.231              3.625               
N              36.469              -11.146             6.17                
C              37.189              -12.259             6.756               
C              37.595              -11.985             8.208               
O              37.354              -12.829             9.091               
C              38.405              -12.591             5.902               
C              38.852              -14.04              6.018               
C              40.199              -14.25              5.363               
N              40.358              -13.464             4.147               
C              39.919              -13.826             2.95                
N              39.28               -14.975             2.79                
N              40.134              -13.036             1.907               
H              36.768              -10.672             5.285               
H              36.597              -13.08              6.744               
H              38.179              -12.414             4.95                
H              39.16               -12.013             6.191               
H              38.928              -14.287             6.98                
H              38.188              -14.628             5.565               
H              40.909              -13.99              6.018               
H              40.289              -15.221             5.141               
H              40.839              -12.577             4.221               
H              39.1                -15.577             3.564               
H              38.968              -15.248             1.871               
H              40.608              -12.162             2.03                
H              39.823              -13.309             0.997               
N              38.188              -10.807             8.453               
H              38.318              -10.209             7.607               
H              38.4884             -10.5156            9.38765             
