277
3.xyz
C              100.871             135.67              13.784              
O              101.006             135.322             14.971              
N              100.924             136.943             13.373              
C              101.133             138.043             14.324              
C              99.802              138.661             14.798              
O              98.722              138.241             14.353              
C              102.139             139.083             13.797              
C              101.626             139.884             12.594              
O              100.404             139.998             12.391              
O              102.486             140.451             11.876              
H              100.808             137.08              12.356              
H              101.578             137.651             15.14               
H              102.338             139.719             14.536              
H              102.965             138.601             13.525              
N              99.877              139.648             15.691              
C              98.678              140.243             16.268              
C              97.766              140.989             15.293              
O              96.628              141.311             15.649              
C              99.044              141.114             17.471              
O              99.734              142.273             17.087              
H              100.84              139.946             15.931              
H              98.125              139.487             16.688              
H              98.201              141.372             17.944              
H              99.619              140.576             18.088              
H              100.197             142.12              16.212              
N              98.275              141.286             14.093              
C              97.502              141.962             13.044              
C              96.967              140.926             12.05               
O              96.418              141.296             10.995              
C              98.391              142.924             12.236              
C              98.853              144.162             12.926              
C              99.694              145.035             11.996              
O              100.53              144.497             11.233              
O              99.49               146.248             12                  
H              99.27               140.996             13.966              
H              96.736              142.456             13.455              
H              99.196              142.403             11.955              
H              97.866              143.192             11.429              
H              98.076              144.695             13.191              
H              99.425              143.919             13.682              
N              97.263              139.649             12.306              
C              96.811              138.591             11.424              
C              97.738              138.274             10.256              
O              97.389              137.439             9.428               
H              97.823              139.495             13.16               
H              96.667              137.734             11.971              
H              95.885              138.834             11.052              
N              98.911              138.912             10.174              
C              99.841              138.604             9.085               
C              100.528             137.257             9.346               
O              100.746             136.895             10.508              
C              100.847             139.728             8.91                
C              100.143             141.045             8.648               
C              101.074             142.113             8.118               
C              101.887             141.628             6.945               
N              103.228             142.227             7.046               
H              99.091              139.604             10.909              
H              99.328              138.54              8.227               
H              101.372             139.814             9.74                
H              101.421             139.519             8.135               
H              99.406              140.894             7.978               
H              99.728              141.371             9.506               
H              100.53              142.9               7.828               
H              101.698             142.389             8.849               
H              101.958             140.641             6.983               
H              101.453             141.92              6.103               
H              103.83              141.833             6.348               
H              103.169             143.218             6.907               
H              103.614             142.045             7.953               
N              100.84              136.53              8.267               
C              101.467             135.203             8.336               
C              102.808             135.181             7.642               
O              103.03              135.906             6.674               
C              100.604             134.165             7.613               
C              99.228              133.942             8.183               
C              98.42               133.034             7.261               
N              97.094              132.782             7.813               
C              96.137              132.061             7.227               
N              96.337              131.498             6.033               
N              94.978              131.913             7.849               
H              100.597             136.992             7.358               
H              101.595             134.963             9.31                
H              100.506             134.46              6.657               
H              101.098             133.29              7.63                
H              99.294              133.498             9.067               
H              98.747              134.806             8.257               
H              98.334              133.487             6.383               
H              98.91               132.177             7.17                
H              96.878              133.188             8.718               
H              97.216              131.595             5.574               
H              95.6                130.976             5.601               
H              94.828              132.317             8.751               
H              94.239              131.389             7.414               
N              103.689             134.304             8.111               
C              104.982             134.168             7.471               
C              105.893             133.225             8.224               
O              105.533             132.743             9.295               
H              103.382             133.76              8.927               
H              104.855             133.827             6.525               
H              105.423             135.079             7.405               
N              107.075             132.967             7.67                
C              108.047             132.07              8.29                
C              108.885             132.789             9.328               
O              109.253             133.945             9.134               
C              108.97              131.484             7.222               
C              108.215             130.72              6.15                
S              107.124             129.43              6.836               
C              108.385             128.351             7.523               
H              107.245             133.455             6.765               
H              107.538             131.331             8.753               
H              109.479             132.23              6.785               
H              109.622             130.859             7.661               
H              107.67              131.384             5.592               
H              108.89              130.304             5.502               
H              108.715             127.729             6.812               
H              109.147             128.903             7.863               
H              107.995             127.82              8.276               
N              109.148             132.108             10.441              
C              109.949             132.671             11.53               
C              111.004             131.667             12.01               
O              110.773             130.456             11.999              
C              109.093             133.098             12.759              
C              108.451             131.872             13.444              
C              108.069             134.123             12.314              
C              107.862             132.177             14.829              
H              108.74              131.151             10.471              
H              110.452             133.446             11.139              
H              109.701             133.532             13.415              
H              107.725             131.528             12.858              
H              109.15              131.171             13.547              
H              107.555             134.452             13.106              
H              108.532             134.894             11.878              
H              107.437             133.706             11.661              
H              107.157             132.873             14.731              
H              107.47              131.341             15.201              
H              108.591             132.508             15.421              
N              112.203             132.169             12.373              
C              113.291             131.304             12.854              
C              113.085             130.933             14.325              
O              113.048             131.797             15.209              
C              114.53              132.159             12.632              
C              114.043             133.542             12.86               
C              112.636             133.568             12.241              
H              113.367             130.478             12.286              
H              115.25              131.917             13.285              
H              114.878             132.047             11.7                
H              113.989             133.753             13.836              
H              114.628             134.213             12.405              
H              112.041             134.178             12.751              
H              112.678             133.843             11.286              
N              113.015             129.638             14.593              
C              112.789             129.156             15.952              
C              113.754             129.702             17.013              
O              113.323             130.027             18.109              
C              112.68              127.595             15.976              
C              112.482             127.083             17.407              
C              111.502             127.161             15.111              
H              113.131             129.011             13.776              
H              111.842             129.43              16.23               
H              113.547             127.234             15.654              
H              113.3               126.589             17.695              
H              112.326             127.859             18.015              
H              111.693             126.472             17.431              
H              111.745             127.268             14.147              
H              111.29              126.203             15.301              
H              110.71              127.731             15.325              
N              115.072             129.816             16.7                
C              116.012             130.339             17.701              
C              115.711             131.755             18.182              
O              116.24              132.179             19.215              
C              117.353             130.323             16.96               
C              117.232             129.11              16.102              
C              115.804             129.227             15.559              
H              116.072             129.698             18.496              
H              117.46              131.145             16.409              
H              118.108             130.237             17.601              
H              117.885             129.13              15.357              
H              117.329             128.281             16.636              
H              115.774             129.829             14.77               
H              115.439             128.332             15.327              
N              114.923             132.514             17.416              
C              114.618             133.892             17.784              
C              113.411             134.028             18.716              
O              113.04              135.143             19.088              
C              114.346             134.744             16.544              
C              115.552             135.203             15.757              
C              116.627             134.342             15.509              
C              115.603             136.51              15.245              
C              117.746             134.782             14.76               
C              116.703             136.955             14.502              
C              117.764             136.083             14.265              
O              118.855             136.506             13.534              
H              114.561             132.05              16.567              
H              115.427             134.279             18.265              
H              113.753             134.212             15.924              
H              113.835             135.565             16.835              
H              116.616             133.413             15.857              
H              114.843             137.13              15.413              
H              118.503             134.162             14.594              
H              116.726             137.883             14.148              
H              118.545             136.822             12.64               
N              112.778             132.91              19.057              
C              111.59              132.964             19.909              
C              111.678             131.946             21.044              
O              112.477             130.992             21.001              
C              110.302             132.661             19.098              
C              110.232             133.524             17.853              
C              110.252             131.182             18.723              
H              113.18              132.04              18.685              
H              111.541             133.882             20.319              
H              109.526             132.905             19.672              
H              110.705             133.066             17.099              
H              109.275             133.674             17.601              
H              110.67              134.407             18.03               
H              110.059             130.643             19.542              
H              109.531             131.04              18.046              
H              111.134             130.911             18.34               
N              110.793             132.125             22.02               
C              110.724             131.245             23.178              
C              109.254             130.867             23.34               
O              108.361             131.57              22.849              
C              111.233             131.962             24.442              
C              110.296             133.079             24.956              
C              110.791             133.792             26.209              
O              111.666             133.255             26.917              
O              110.287             134.897             26.492              
H              110.16              132.942             21.884              
H              111.261             130.431             23.021              
H              111.307             131.295             25.157              
H              112.092             132.382             24.226              
H              110.213             133.752             24.24               
H              109.426             132.666             25.17               
N              109.004             129.758             24.028              
C              107.634             129.326             24.263              
C              106.921             130.341             25.17               
O              107.541             130.985             26.023              
C              107.62              127.93              24.894              
C              108.579             126.955             24.212              
C              108.688             127.202             22.692              
C              110.045             126.778             22.121              
N              110.2               127.224             20.709              
H              109.836             129.251             24.367              
H              107.146             129.285             23.39               
H              107.888             128.015             25.846              
H              106.699             127.564             24.822              
H              109.491             127.056             24.613              
H              108.255             126.019             24.357              
H              107.974             126.678             22.236              
H              108.562             128.175             22.521              
H              110.768             127.185             22.679              
H              110.113             125.781             22.164              
H              109.973             126.468             20.096              
H              109.585             127.993             20.535              
H              111.145             127.509             20.553              
N              105.637             130.542             24.91               
C              104.806             131.449             25.711              
C              103.965             130.636             26.72               
C              103.89              132.255             24.786              
C              102.95              133.207             25.481              
C              103.389             134.454             25.898              
C              101.614             132.871             25.691              
C              102.52              135.365             26.5                
C              100.736             133.767             26.289              
C              101.2               135.016             26.692              
O              100.345             135.939             27.242              
O              103.909             130.969             27.906              
O              103.284             129.631             26.539              
H              105.267             130.008             24.096              
H              105.408             132.054             26.232              
H              104.469             132.785             24.161              
H              103.341             131.607             24.251              
H              104.349             134.714             25.768              
H              101.283             131.974             25.407              
H              102.857             136.261             26.786              
H              99.78               133.519             26.43               
H              100.677             136.196             28.148              
H              100.697             134.94              13.0316             
