172
2.xyz
C              104.12              124.891             11.295              
O              104.817             125.886             11.516              
N              104.589             123.647             11.266              
C              106.008             123.337             11.452              
C              106.51              122.489             10.277              
O              106.732             121.279             10.407              
C              106.239             122.638             12.795              
C              105.753             123.495             13.939              
C              106.119             122.94              15.282              
C              105.682             123.938             16.345              
N              106.033             123.469             17.697              
H              103.865             122.915             11.101              
H              106.528             124.192             11.474              
H              105.733             121.792             12.793              
H              107.208             122.484             12.899              
H              106.149             124.42              13.845              
H              104.749             123.581             13.879              
H              105.639             122.094             15.434              
H              107.095             122.83              15.342              
H              106.133             124.816             16.165              
H              104.689             124.063             16.279              
H              105.911             122.476             17.754              
H              106.989             123.695             17.897              
H              105.442             123.912             18.374              
N              106.661             123.121             9.1                 
C              107.124             122.401             7.919               
C              108.584             121.97              8.027               
O              109.024             121.087             7.287               
C              106.885             123.413             6.795               
C              107.055             124.753             7.486               
C              106.384             124.547             8.797               
H              106.531             121.599             7.732               
H              107.559             123.308             6.069               
H              105.966             123.327             6.424               
H              108.024             124.957             7.594               
H              106.612             125.467             6.951               
H              106.769             125.13              9.513               
H              105.395             124.7               8.743               
N              109.317             122.567             8.968               
C              110.73              122.252             9.203               
C              110.966             122.356             10.702              
O              110.224             123.036             11.41               
C              111.645             123.295             8.559               
C              111.626             123.382             7.063               
C              112.519             124.505             6.58                
O              113.641             124.665             7.129               
O              112.088             125.229             5.665               
H              108.797             123.282             9.527               
H              110.924             121.331             8.894               
H              111.376             124.185             8.922               
H              112.578             123.083             8.843               
H              111.977             122.549             6.693               
H              110.717             123.584             6.767               
N              112.081             121.797             11.162              
C              112.404             121.852             12.578              
C              112.671             123.274             13.091              
O              112.167             123.645             14.169              
C              113.619             120.971             12.871              
C              113.362             119.49              12.606              
C              114.64              118.683             12.523              
O              115.353             118.582             13.546              
O              114.931             118.149             11.429              
H              112.671             121.34              10.451              
H              111.644             121.445             13.119              
H              114.346             121.255             12.279              
H              113.84              121.067             13.82               
H              112.831             119.135             13.351              
H              112.9               119.409             11.743              
N              113.412             124.077             12.309              
C              113.815             125.416             12.739              
C              113.145             126.644             12.131              
O              113.48              127.765             12.508              
C              115.335             125.569             12.6                
C              116.147             124.448             13.219              
C              115.969             124.314             14.716              
H              113.666             123.667             11.391              
H              113.664             125.463             13.77               
H              115.562             125.618             11.622              
H              115.609             126.433             13.036              
H              115.878             123.58              12.787              
H              117.121             124.612             13.027              
O              116.019             123.194             15.252              
N              115.781             125.442             15.411              
H              115.642             125.423             16.409              
H              115.782             126.328             14.904              
N              112.219             126.438             11.196              
C              111.492             127.514             10.542              
C              110.015             127.113             10.589              
O              109.619             126.069             10.047              
C              111.954             127.666             9.097               
C              113.267             128.377             8.957               
C              114.526             127.81              8.839               
C              113.463             129.795             8.92                
N              115.483             128.803             8.73                
C              114.86              130.033             8.773               
C              112.591             130.898             8.983               
C              115.403             131.334             8.688               
C              113.143             132.208             8.898               
C              114.532             132.403             8.748               
H              112.06              125.424             10.972              
H              111.594             128.332             11.086              
H              112.064             126.764             8.695               
H              111.279             128.193             8.594               
H              114.711             126.835             8.834               
H              116.463             128.656             8.636               
H              111.615             130.786             9.083               
H              116.393             131.457             8.588               
H              112.53              132.98              8.947               
H              114.882             133.334             8.685               
N              109.212             127.929             11.27               
C              107.788             127.652             11.435              
C              106.93              128.761             10.83               
O              107.369             129.909             10.7                
C              107.477             127.564             12.937              
C              108.153             126.425             13.672              
C              108.813             125.356             13.124              
C              108.24              126.251             15.101              
N              109.31              124.542             14.118              
C              108.97              125.07              15.34               
C              107.763             126.991             16.196              
C              109.244             124.606             16.637              
C              108.032             126.538             17.478              
C              108.769             125.354             17.69               
H              109.681             128.767             11.667              
H              107.58              126.802             10.935              
H              107.772             128.409             13.378              
H              106.494             127.443             13.057              
H              108.919             125.189             12.146              
H              109.833             123.704             13.975              
H              107.241             127.828             16.057              
H              109.765             123.762             16.771              
H              107.7               127.055             18.258              
H              108.944             125.062             18.628              
N              105.709             128.429             10.435              
C              104.79              129.455             9.918               
C              104.016             129.966             11.147              
O              103.523             129.17              11.98               
C              103.813             128.903             8.865               
C              102.938             130.009             8.256               
H              105.465             127.434             10.516              
H              105.339             130.204             9.594               
H              104.338             128.485             8.137               
H              103.219             128.241             9.302               
O              101.923             130.428             8.843               
N              103.378             130.547             7.115               
H              104.23              130.217             6.709               
H              102.857             131.273             6.673               
N              103.93              131.289             11.261              
C              103.268             131.912             12.398              
C              102.378             133.088             11.984              
O              102.469             133.594             10.861              
C              104.329             132.379             13.438              
H              104.366             131.823             10.486              
H              102.687             131.221             12.857              
H              103.95              133.137             13.958              
H              104.539             131.617             14.04               
H              105.145             132.668             12.95               
N              101.546             133.52              12.921              
C              100.621             134.624             12.706              
C              99.164              134.12              12.805              
C              98.115              135.247             12.684              
C              96.693              134.8               12.971              
O              96.436              133.588             12.987              
O              95.812              135.666             13.178              
H              101.61              133                 13.828              
H              100.774             135.026             11.808              
H              99.012              133.5               12.065              
H              99.049              133.708             13.684              
H              98.351              135.945             13.338              
H              98.145              135.586             11.759              
H              103.072             124.997             11.1352             
H              100.801             135.375             13.4801             
