180
1.xyz
C              107.323             137.175             8.91                
C              108.237             138.024             9.796               
O              108.829             137.517             10.754              
C              106.34              136.395             9.792               
C              105.432             137.212             10.727              
C              104.567             138.191             9.919               
C              104.534             136.266             11.545              
H              106.832             137.778             8.293               
H              105.742             135.867             9.19                
H              106.871             135.773             10.366              
H              106.001             137.726             11.364              
H              103.999             137.676             9.281               
H              103.987             138.709             10.545              
H              105.162             138.814             9.415               
H              105.11              135.659             12.088              
H              103.951             136.809             12.146              
H              103.971             135.73              10.92               
N              108.422             139.303             9.437               
C              109.275             140.193             10.234              
C              108.585             140.427             11.574              
O              107.358             140.405             11.645              
C              109.283             141.491             9.406               
C              108.992             141.036             8.003               
C              107.935             139.984             8.225               
H              110.179             139.803             10.36               
H              108.576             142.119             9.731               
H              110.176             141.937             9.459               
H              108.641             141.786             7.459               
H              109.803             140.646             7.589               
H              107.042             140.393             8.387               
H              107.887             139.348             7.459               
N              109.352             140.632             12.639              
C              108.786             140.89              13.955              
C              109.8               141.584             14.848              
O              110.987             141.672             14.512              
C              108.238             139.613             14.633              
C              109.237             138.484             14.77               
C              110.199             138.489             15.77               
C              109.184             137.385             13.907              
C              111.095             137.425             15.916              
C              110.069             136.319             14.041              
C              111.036             136.335             15.052              
H              110.375             140.593             12.453              
H              108.023             141.532             13.826              
H              107.935             139.865             15.542              
H              107.481             139.286             14.084              
H              110.259             139.259             16.4                
H              108.495             137.367             13.18               
H              111.782             137.457             16.651              
H              110.012             135.535             13.406              
H              111.671             135.58              15.153              
N              109.328             142.095             15.982              
C              110.198             142.79              16.939              
C              110.231             142.05              18.279              
O              109.259             141.411             18.673              
C              109.704             144.226             17.174              
C              109.708             145.127             15.949              
C              111.117             145.481             15.536              
C              111.068             146.35              14.299              
N              112.436             146.701             13.864              
H              108.31              141.964             16.132              
H              111.13              142.821             16.565              
H              108.765             144.176             17.525              
H              110.29              144.643             17.875              
H              109.255             144.651             15.195              
H              109.207             145.966             16.161              
H              111.551             145.988             16.264              
H              111.611             144.653             15.324              
H              110.604             145.851             13.568              
H              110.561             147.186             14.507              
H              113.085             146.504             14.601              
H              112.681             146.164             13.055              
H              112.478             147.676             13.638              
N              111.348             142.154             18.983              
C              111.468             141.518             20.273              
C              110.223             141.873             21.1                
O              109.775             143.036             21.11               
C              112.729             142.018             20.986              
C              112.873             141.561             22.416              
C              114.255             141.951             22.945              
C              114.387             141.591             24.422              
N              115.782             141.764             24.9                
H              112.097             142.713             18.538              
H              111.496             140.528             20.159              
H              113.524             141.697             20.466              
H              112.713             143.021             20.97               
H              112.184             142.002             22.979              
H              112.784             140.573             22.463              
H              114.943             141.455             22.435              
H              114.371             142.929             22.846              
H              113.778             142.183             24.953              
H              114.109             140.637             24.547              
H              116.418             141.489             24.179              
H              115.938             142.724             25.133              
H              115.93              141.196             25.71               
N              109.651             140.867             21.755              
C              108.481             141.09              22.564              
C              107.176             140.713             21.894              
O              106.184             140.478             22.578              
H              110.11              139.949             21.631              
H              108.568             140.565             23.439              
H              108.44              142.076             22.838              
N              107.154             140.635             20.571              
C              105.915             140.284             19.891              
C              105.473             138.883             20.268              
O              106.305             138.027             20.463              
C              106.077             140.315             18.361              
C              106.143             141.725             17.789              
O              105.812             142.703             18.495              
O              106.518             141.852             16.605              
H              108.04              140.833             20.095              
H              105.205             140.918             20.219              
H              106.921             139.839             18.134              
H              105.297             139.845             17.962              
N              104.165             138.678             20.394              
C              103.611             137.355             20.672              
C              103.104             136.84              19.328              
O              102.366             137.547             18.612              
C              102.463             137.393             21.73               
C              102.981             137.964             23.067              
C              101.914             135.973             21.972              
C              104.144             137.192             23.665              
H              103.578             139.53              20.279              
H              104.371             136.782             20.925              
H              101.76              138.001             21.388              
H              103.262             138.91              22.913              
H              102.223             137.958             23.718              
H              101.171             136.021             22.632              
H              101.58              135.604             21.11               
H              102.646             135.399             22.326              
H              104.909             137.202             23.024              
H              104.418             137.623             24.523              
H              103.86              136.251             23.836              
N              103.601             135.672             18.926              
C              103.222             135.06              17.648              
C              102.529             133.711             17.843              
O              102.875             132.957             18.749              
C              104.469             134.863             16.784              
C              105.351             136.103             16.599              
C              106.813             135.717             16.485              
C              104.896             136.875             15.39               
H              104.274             135.234             19.588              
H              102.582             135.68              17.175              
H              105.03              134.162             17.211              
H              104.174             134.572             15.882              
H              105.224             136.709             17.387              
H              106.942             135.113             15.697              
H              107.371             136.54              16.365              
H              107.102             135.241             17.317              
H              103.943             137.165             15.507              
H              105.471             137.688             15.266              
H              104.963             136.3               14.57               
N              101.573             133.391             16.98               
C              100.899             132.106             17.091              
C              101.451             131.156             16.043              
O              101.544             131.513             14.878              
C              99.375              132.238             16.935              
C              98.615              130.985             17.419              
C              97.102              131.096             17.267              
N              96.704              131.399             15.891              
C              96.578              130.495             14.935              
N              96.815              129.21              15.207              
N              96.298              130.885             13.694              
H              101.363             134.096             16.264              
H              101.076             131.723             17.999              
H              99.069              133.004             17.478              
H              99.167              132.365             15.979              
H              98.927              130.193             16.89               
H              98.823              130.835             18.388              
H              96.7                130.227             17.542              
H              96.785              131.825             17.869              
H              96.515              132.362             15.662              
H              97.066              128.913             16.12               
H              96.736              128.529             14.468              
H              96.165              131.857             13.496              
H              96.219              130.21              12.963              
N              101.816             129.944             16.463              
H              101.687             129.773             17.474              
H              107.942             136.525             8.33351             
H              102.191             129.253             15.8184             
