369
2.xyz
C              -33.818             12.002              11.813              
C              -34.705             12.119              10.568              
O              -35.859             11.673              10.656              
C              -34.59              12.496              13.05               
C              -35.051             13.942              13.036              
O              -34.72              14.677              12.114              
O              -35.769             14.335              13.959              
H              -33.578             11.017              11.906              
H              -35.4               11.902              13.157              
H              -33.995             12.356              13.853              
N              -34.234             12.78               9.483               
C              -34.991             12.931              8.248               
C              -35.766             14.243              8.159               
O              -36.322             14.644              7.14                
H              -33.273             13.171              9.621               
H              -34.356             12.868              7.454               
H              -35.644             12.155              8.157               
N              -35.866             15.004              9.223               
C              -36.601             16.241              9.197               
C              -35.912             17.256              8.284               
O              -34.758             17.615              8.491               
C              -36.689             16.754              10.629              
C              -37.903             17.603              10.799              
C              -37.644             19.089              10.645              
C              -36.932             19.593              11.893              
N              -37.792             19.513              13.067              
H              -35.377             14.641              10.07               
H              -37.528             16.074              8.84                
H              -36.749             15.975              11.231              
H              -35.884             17.295              10.811              
H              -38.604             17.331              10.117              
H              -38.302             17.444              11.718              
H              -37.059             19.237              9.868               
H              -38.503             19.561              10.56               
H              -36.106             19.037              12.033              
H              -36.653             20.546              11.735              
H              -38.107             20.43               13.329              
H              -38.594             18.94               12.871              
H              -37.289             19.112              13.839              
N              -36.665             17.752              7.317               
C              -36.212             18.731              6.36                
C              -36.219             20.067              7.047               
O              -37.225             20.45               7.663               
C              -37.176             18.757              5.174               
C              -36.817             19.573              3.927               
C              -37.93              19.543              2.863               
C              -39.229             20.247              3.33                
N              -40.308             20.153              2.348               
H              -37.649             17.359              7.307               
H              -35.28              18.511              6.08                
H              -37.33              17.793              4.874               
H              -38.079             19.096              5.512               
H              -36.66              20.525              4.195               
H              -35.981             19.2                3.523               
H              -37.604             20.008              2.045               
H              -38.15              18.595              2.655               
H              -39.511             19.822              4.199               
H              -39.005             21.213              3.51                
H              -40.041             20.615              1.497               
H              -40.507             19.19               2.146               
H              -41.139             20.588              2.706               
N              -35.137             20.812              6.949               
C              -35.159             22.165              7.485               
C              -35.188             23.196              6.355               
O              -35.493             24.37               6.593               
C              -33.949             22.395              8.411               
C              -32.549             22.07               7.907               
C              -31.845             23.002              7.141               
C              -31.96              20.863              8.283               
C              -30.545             22.719              6.764               
C              -30.654             20.605              7.894               
C              -29.948             21.527              7.139               
H              -34.329             20.384              6.491               
H              -36.021             22.27               7.991               
H              -33.952             23.37               8.675               
H              -34.1               21.847              9.246               
H              -32.27              23.849              6.875               
H              -32.466             20.206              8.817               
H              -30.031             23.391              6.209               
H              -30.216             19.728              8.168               
H              -29.005             21.335              6.863               
N              -34.83              22.806              5.131               
C              -34.897             23.727              3.981               
C              -34.608             22.987              2.688               
O              -33.964             21.95               2.749               
C              -33.876             24.882              4.05                
C              -34.235             25.986              3.042               
O              -35.378             26.43               3.026               
O              -33.419             26.383              2.232               
H              -34.509             21.827              5.056               
H              -35.843             24.061              3.932               
H              -33.905             25.262              4.954               
H              -32.992             24.524              3.821               
N              -35.097             23.497              1.547               
C              -34.9               22.903              0.219               
C              -35.109             23.948              -0.864              
O              -36.12              24.656              -0.846              
C              -35.887             21.749              -0.042              
O              -35.622             21.174              -1.313              
H              -35.65              24.384              1.69                
H              -33.951             22.581              0.164               
H              -35.764             21.063              0.659               
H              -36.806             22.112              -0.034              
H              -34.656             21.295              -1.537              
N              -34.148             24.094              -1.785              
C              -34.348             25.012              -2.908              
C              -35.297             24.364              -3.919              
O              -35.886             25.045              -4.767              
C              -33.029             25.341              -3.6                
O              -32.329             24.166              -3.987              
H              -33.305             23.533              -1.638              
H              -34.787             25.838              -2.561              
H              -33.218             25.886              -4.415              
H              -32.455             25.864              -2.971              
H              -32.409             23.48               -3.266              
N              -35.41              23.027              -3.853              
C              -36.282             22.291              -4.735              
C              -37.722             22.751              -4.421              
O              -38.483             22.992              -5.349              
C              -36.124             20.759              -4.536              
C              -34.744             20.212              -4.967              
C              -34.595             18.665              -5.012              
N              -33.227             18.206              -5.321              
C              -32.308             17.927              -4.359              
N              -32.599             18.053              -3.058              
N              -31.051             17.522              -4.674              
H              -34.818             22.588              -3.118              
H              -36.084             22.524              -5.677              
H              -36.242             20.56               -3.574              
H              -36.814             20.305              -5.081              
H              -34.525             20.562              -5.891              
H              -34.038             20.562              -4.332              
H              -34.867             18.313              -4.117              
H              -35.223             18.326              -5.712              
H              -32.962             18.095              -6.268              
H              -33.516             18.339              -2.786              
H              -31.903             17.861              -2.373              
H              -30.839             17.42               -5.65               
H              -30.397             17.342              -3.972              
N              -38.082             23.029              -3.169              
C              -39.414             23.552              -2.854              
C              -39.589             24.97               -3.411              
O              -40.715             25.372              -3.708              
C              -39.643             23.571              -1.307              
C              -39.596             22.207              -0.631              
O              -39.961             21.183              -1.21               
O              -39.149             22.174              0.517               
H              -37.356             22.848              -2.454              
H              -40.082             22.968              -3.326              
H              -38.933             24.154              -0.913              
H              -40.539             23.982              -1.148              
N              -38.52              25.759              -3.552              
C              -38.647             27.075              -4.151              
C              -38.488             27.041              -5.679              
O              -38.783             28.016              -6.385              
C              -37.616             28.029              -3.611              
C              -37.566             28.017              -2.104              
C              -36.601             29.085              -1.606              
N              -35.172             28.897              -1.728              
C              -34.461             28.229              -0.81               
N              -35.077             27.62               0.208               
N              -33.144             28.1                -0.952              
H              -37.634             25.359              -3.209              
H              -39.564             27.448              -3.939              
H              -36.724             27.762              -3.952              
H              -37.845             28.948              -3.905              
H              -38.464             28.218              -1.734              
H              -37.24              27.137              -1.783              
H              -36.86              29.968              -2.079              
H              -36.829             29.254              -0.611              
H              -34.695             29.272              -2.513              
H              -36.069             27.639              0.284               
H              -34.53              27.14               0.899               
H              -32.697             28.49               -1.76               
H              -32.609             27.62               -0.263              
N              -38.057             25.89               -6.213              
C              -37.848             25.68               -7.631              
C              -36.867             26.715              -8.202              
O              -36.957             27.172              -9.322              
C              -39.208             25.74               -8.286              
C              -39.145             25.316              -9.731              
H              -37.881             25.139              -5.491              
H              -37.413             24.78               -7.746              
H              -39.825             25.128              -7.802              
H              -39.543             26.675              -8.243              
O              -39.688             25.99               -10.592             
N              -38.579             24.187              -10.142             
H              -38.188             23.618              -9.375              
H              -38.536             23.921              -11.061             
N              -35.879             27.142              -7.446              
C              -34.889             28.086              -7.931              
C              -33.568             27.566              -7.349              
O              -33.513             27.296              -6.133              
C              -35.286             29.489              -7.422              
C              -34.422             30.646              -7.969              
C              -34.932             31.98               -7.424              
C              -33.92              33.129              -7.639              
N              -32.742             32.988              -6.793              
H              -35.866             26.749              -6.478              
H              -34.839             28.041              -8.909              
H              -36.232             29.66               -7.688              
H              -35.209             29.492              -6.427              
H              -33.486             30.511              -7.674              
H              -34.486             30.652              -8.957              
H              -35.776             32.221              -7.893              
H              -35.094             31.892              -6.446              
H              -33.656             33.126              -8.61               
H              -34.392             33.994              -7.439              
H              -32.358             32.064              -6.884              
H              -32.041             33.656              -7.06               
H              -32.985             33.143              -5.83               
N              -32.55              27.208              -8.178              
C              -31.261             26.688              -7.722              
C              -30.575             27.696              -6.816              
O              -30.779             28.907              -6.955              
C              -30.42              26.433              -8.95               
C              -31.441             26.386              -10.053             
C              -32.516             27.383              -9.635              
H              -31.377             25.806              -7.255              
H              -29.77              27.174              -9.107              
H              -29.934             25.565              -8.886              
H              -31.032             26.656              -10.924             
H              -31.827             25.468              -10.136             
H              -32.254             28.31               -9.878              
H              -33.393             27.152              -10.044             
N              -29.74              27.189              -5.907              
C              -29.017             28.076              -5.029              
C              -27.649             28.289              -5.66               
O              -27.054             27.319              -6.12               
C              -28.908             27.404              -3.66               
C              -28.083             28.155              -2.651              
C              -28.585             29.288              -2.055              
C              -26.828             27.698              -2.333              
C              -27.817             29.962              -1.135              
C              -26.075             28.386              -1.414              
C              -26.56              29.523              -0.806              
H              -29.669             26.165              -5.897              
H              -29.478             28.955              -5.045              
H              -29.826             27.31               -3.294              
H              -28.491             26.513              -3.792              
H              -29.491             29.618              -2.282              
H              -26.468             26.876              -2.764              
H              -28.195             30.801              -0.696              
H              -25.137             28.046              -1.18               
H              -26.009             30.017              -0.139              
N              -27.096             29.492              -5.678              
C              -25.762             29.689              -6.233              
C              -24.749             30.053              -5.137              
O              -25.097             30.865              -4.265              
C              -25.755             30.832              -7.237              
C              -26.559             30.487              -8.449              
C              -26.484             31.561              -9.515              
C              -27.208             30.936              -10.695             
N              -27.374             31.883              -11.789             
H              -27.67              30.251              -5.279              
H              -25.459             28.835              -6.674              
H              -26.15              31.628              -6.802              
H              -24.818             31                  -7.507              
H              -26.222             29.623              -8.842              
H              -27.524             30.361              -8.189              
H              -26.974             32.338              -9.222              
H              -25.563             31.711              -9.756              
H              -26.678             30.139              -11.008             
H              -28.109             30.613              -10.381             
H              -28.35              32.009              -11.995             
H              -26.979             32.773              -11.541             
H              -26.912             31.545              -12.615             
N              -23.538             29.494              -5.123              
C              -22.501             30.003              -4.24               
C              -21.185             29.92               -4.992              
O              -21.053             29.028              -5.85               
C              -22.403             29.187              -2.939              
C              -21.79              27.791              -3.045              
C              -22.567             26.732              -3.454              
C              -20.459             27.585              -2.703              
C              -22.019             25.474              -3.516              
C              -19.911             26.306              -2.767              
C              -20.699             25.251              -3.172              
H              -23.412             28.702              -5.769              
H              -22.689             30.968              -4.092              
H              -21.846             29.707              -2.294              
H              -23.327             29.078              -2.577              
H              -23.517             26.872              -3.704              
H              -19.895             28.351              -2.413              
H              -22.599             24.693              -3.82               
H              -18.943             26.166              -2.515              
H              -20.322             24.325              -3.219              
N              -20.2               30.794              -4.732              
C              -18.851             30.683              -5.293              
C              -17.946             29.913              -4.354              
O              -17.832             30.25               -3.157              
C              -18.237             32.08               -5.535              
C              -16.709             32.179              -5.777              
S              -16.105             33.796              -6.346              
C              -17.319             34.206              -7.534              
H              -20.484             31.57               -4.086              
H              -18.917             30.174              -6.158              
H              -18.703             32.506              -6.34               
H              -18.46              32.677              -4.734              
H              -16.237             31.899              -4.899              
H              -16.451             31.434              -6.449              
H              -18.073             34.725              -7.11               
H              -16.923             34.771              -8.27               
H              -17.706             33.374              -7.952              
N              -17.327             28.891              -4.922              
C              -16.376             28.071              -4.244              
C              -15.167             28.886              -3.827              
O              -14.554             29.561              -4.654              
C              -15.797             26.957              -5.123              
C              -16.002             25.492              -4.92               
C              -14.734             24.858              -5.498              
C              -16.145             25.077              -3.493              
H              -17.606             28.74               -5.931              
H              -16.799             27.689              -3.41               
H              -16.099             27.175              -6.098              
H              -14.768             27.121              -5.153              
H              -16.774             25.181              -5.431              
H              -13.938             25.201              -5.001              
H              -14.788             23.865              -5.402              
H              -14.656             25.098              -6.464              
H              -16.936             25.535              -3.074              
H              -16.28              24.082              -3.431              
H              -15.32              25.323              -2.974              
N              -14.796             28.76               -2.544              
C              -13.622             29.392              -1.978              
C              -13.872             30.776              -1.434              
O              -13.007             31.345              -0.77               
H              -15.447             28.151              -1.982              
H              -13.25              28.8                -1.232              
H              -12.89              29.438              -2.691              
N              -15.07              31.315              -1.587              
C              -15.345             32.636              -1.096              
C              -15.728             32.7                0.389               
O              -15.94              33.772              0.937               
C              -16.428             33.155              -1.913              
C              -16.502             34.664              -2.036              
C              -17.88              34.708              -2.635              
C              -18.215             36.032              -3.122              
N              -19.644             36.078              -3.358              
H              -15.761             30.717              -2.075              
H              -14.518             33.225              -1.23               
H              -16.356             32.785              -2.856              
H              -17.32              32.844              -1.54               
H              -16.515             35.05               -1.173              
H              -15.867             34.96               -2.669              
H              -17.914             34.044              -3.39               
H              -18.538             34.423              -1.929              
H              -17.969             36.725              -2.443              
H              -17.732             36.221              -3.978              
H              -20.118             35.407              -2.777              
H              -20.005             36.994              -3.149              
H              -19.848             35.867              -4.32               
N              -15.837             31.568              1.075               
C              -16.176             31.499              2.493               
C              -15.187             32.299              3.326               
C              -13.779             31.776              3.383               
C              -12.83              32.888              3.804               
H              -15.654             30.704              0.497               
H              -16.13              30.522              2.776               
H              -15.157             33.247              2.964               
H              -15.542             32.356              4.277               
H              -13.724             31.049              4.052               
H              -13.509             31.457              2.486               
O              -13.079             33.689              4.708               
N              -11.692             32.944              3.122               
H              -11.001             33.674              3.333               
H              -11.513             32.262              2.395               
H              -17.1814            31.8638             2.72495             
H              -32.9132            12.5421             11.746              
