378
4.xyz
C              -20.186             22.245              40.021              
C              -18.95              22.554              39.184              
O              -18.732             21.929              38.162              
C              -21.122             23.429              40.006              
C              -22.55              22.965              40.072              
C              -22.986             22.134              41.065              
C              -23.514             23.256              39.153              
N              -24.23              21.896              40.76               
C              -24.576             22.537              39.639              
C              -23.633             23.985              38.01               
C              -25.792             22.526              38.993              
C              -24.836             23.984              37.35               
C              -25.904             23.262              37.834              
H              -20.591             21.409              39.666              
H              -20.963             23.987              40.797              
H              -21.017             23.924              39.165              
H              -22.453             21.814              41.817              
H              -24.878             21.298              41.296              
H              -22.865             24.52               37.643              
H              -26.567             21.998              39.357              
H              -24.929             24.516              36.509              
H              -26.773             23.27               37.341              
N              -18.072             23.452              39.622              
C              -16.803             23.742              38.95               
C              -16.034             22.471              38.657              
O              -15.622             22.218              37.529              
C              -15.951             24.597              39.822              
C              -16.477             25.981              39.982              
C              -15.956             26.98               38.97               
O              -14.893             26.762              38.38               
O              -16.59              28.018              38.813              
H              -18.368             23.944              40.503              
H              -16.987             24.236              38.09               
H              -15.912             24.183              40.719              
H              -15.054             24.66               39.414              
H              -17.467             25.962              39.888              
H              -16.223             26.321              40.882              
N              -15.88              21.608              39.666              
C              -15.14              20.383              39.496              
C              -15.9               19.289              38.749              
O              -15.296             18.539              37.991              
C              -14.749             19.869              40.844              
C              -13.956             20.906              41.606              
C              -12.52              20.56               41.983              
O              -11.995             19.526              41.541              
O              -11.924             21.348              42.728              
H              -16.332             21.9                40.553              
H              -14.266             20.573              39                  
H              -15.559             19.685              41.356              
H              -14.176             19.089              40.728              
H              -13.918             21.741              41.051              
H              -14.44              21.107              42.462              
N              -17.215             19.222              38.9                
C              -18.015             18.157              38.353              
C              -18.395             18.416              36.919              
O              -18.289             17.535              36.065              
H              -17.62              20.018              39.456              
H              -17.503             17.283              38.412              
H              -18.857             18.045              38.909              
N              -18.802             19.634              36.607              
C              -19.214             19.929              35.258              
C              -17.962             19.955              34.368              
O              -18.052             19.637              33.182              
C              -20.001             21.282              35.231              
C              -20.545             21.529              33.809              
C              -21.276             21.194              36.051              
H              -18.797             20.316              37.379              
H              -19.8               19.192              34.929              
H              -19.356             22.003              35.421              
H              -19.788             21.781              33.212              
H              -20.976             20.694              33.478              
H              -21.214             22.267              33.842              
H              -21.096             20.678              36.889              
H              -21.585             22.116              36.285              
H              -21.983             20.73               35.517              
N              -16.755             20.245              34.838              
C              -15.576             20.23               33.982              
C              -15.181             18.826              33.514              
O              -14.38              18.645              32.598              
C              -14.402             20.86               34.726              
H              -16.725             20.479              35.85               
H              -15.763             20.798              33.159              
H              -14.537             21.848              34.785              
H              -14.347             20.476              35.646              
H              -13.555             20.668              34.233              
N              -15.775             17.783              34.068              
C              -15.475             16.422              33.699              
C              -16.481             15.909              32.692              
O              -16.384             14.776              32.221              
C              -15.53              15.532              34.93               
C              -14.531             15.918              36.017              
C              -14.582             15.018              37.253              
H              -16.485             18.035              34.801              
H              -14.566             16.406              33.262              
H              -16.448             15.579              35.327              
H              -15.338             14.586              34.659              
H              -13.605             15.872              35.634              
H              -14.718             16.86               36.306              
O              -14.585             13.796              37.217              
N              -14.625             15.629              38.408              
H              -14.675             15.098              39.284              
H              -14.608             16.649              38.44               
N              -17.484             16.709              32.379              
C              -18.581             16.298              31.524              
C              -18.318             16.801              30.116              
O              -17.659             17.827              29.95               
C              -19.871             16.888              32.046              
C              -20.318             16.174              33.312              
S              -21.742             17.092              33.899              
C              -22.911             16.37               32.773              
H              -17.419             17.667              32.802              
H              -18.605             15.299              31.498              
H              -19.736             17.852              32.26               
H              -20.587             16.788              31.359              
H              -20.563             15.237              33.091              
H              -19.581             16.193              33.978              
H              -23.646             17.024              32.575              
H              -22.454             16.124              31.914              
H              -23.311             15.543              33.177              
N              -18.792             16.083              29.093              
C              -18.605             16.496              27.702              
C              -19.953             16.963              27.204              
O              -20.981             16.58               27.775              
C              -18.094             15.337              26.837              
O              -18.852             14.134              26.791              
H              -19.298             15.218              29.37               
H              -17.982             17.267              27.692              
H              -17.986             15.68               25.875              
H              -17.145             15.101              27.149              
H              -19.824             14.354              26.848              
N              -20.001             17.77               26.148              
C              -21.255             18.318              25.66               
C              -22.185             17.193              25.263              
O              -21.774             16.186              24.693              
C              -20.914             19.277              24.508              
C              -22.21              19.762              23.876              
C              -20.108             20.484              25.03               
H              -19.078             17.969              25.712              
H              -21.685             18.831              26.408              
H              -20.43              18.761              23.818              
H              -22.007             20.462              23.191              
H              -22.676             18.994              23.437              
H              -22.802             20.15               24.583              
H              -19.572             20.86               24.279              
H              -20.745             21.169              25.375              
H              -19.506             20.174              25.761              
N              -23.414             17.314              25.737              
C              -24.422             16.281              25.534              
C              -24.606             15.327              26.684              
O              -25.638             14.642              26.75               
H              -23.598             18.196              26.259              
H              -25.32              16.734              25.322              
H              -24.183             15.75               24.688              
N              -23.62              15.244              27.596              
C              -23.676             14.318              28.745              
C              -24.669             14.766              29.808              
O              -24.838             15.961              30.065              
C              -22.294             14.183              29.392              
C              -22.157             13.05               30.408              
C              -20.744             12.918              30.922              
H              -22.82              15.884              27.423              
H              -23.978             13.419              28.394              
H              -21.613             14.031              28.667              
H              -22.072             15.046              29.861              
H              -22.764             13.24               31.176              
H              -22.423             12.196              29.967              
O              -19.846             13.618              30.422              
N              -20.455             12.041              31.88               
H              -19.543             11.91               32.238              
H              -21.24              11.477              32.257              
N              -25.384             13.789              30.362              
C              -26.276             14.006              31.47               
C              -25.704             13.125              32.537              
O              -25.406             11.943              32.315              
C              -27.679             13.568              31.151              
C              -28.643             13.954              32.257              
C              -30.019             13.651              31.706              
N              -30.976             14.047              32.712              
C              -32.296             14.148              32.511              
N              -32.859             13.896              31.323              
N              -33.069             14.475              33.56               
H              -25.235             12.851              29.915              
H              -26.22              14.943              31.757              
H              -27.975             14.013              30.32               
H              -27.697             12.585              31.061              
H              -28.489             13.396              33.038              
H              -28.58              14.909              32.43               
H              -30.149             14.181              30.893              
H              -30.08              12.686              31.546              
H              -30.635             14.266              33.639              
H              -32.276             13.603              30.564              
H              -33.839             13.998              31.203              
H              -32.669             14.616              34.458              
H              -34.057             14.575              33.428              
N              -25.509             13.75               33.697              
C              -24.883             13.106              34.84               
C              -25.453             13.503              36.218              
O              -26.075             14.55               36.43               
C              -23.383             13.433              34.812              
H              -25.845             14.74               33.711              
H              -24.984             12.091              34.743              
H              -22.862             12.582              34.812              
H              -23.177             13.954              33.987              
H              -23.15              13.971              35.619              
N              -25.321             12.609              37.159              
C              -25.708             12.876              38.528              
C              -24.431             13.185              39.298              
O              -23.468             12.399              39.343              
C              -26.415             11.647              39.048              
C              -27.093             11.798              40.387              
C              -27.493             10.373              40.722              
C              -28.194             10.4                42.056              
N              -28.232             9.07                42.628              
H              -24.918             11.695              36.849              
H              -26.299             13.674              38.556              
H              -27.112             11.373              38.372              
H              -25.74              10.9                39.12               
H              -26.456             12.113              41.044              
H              -27.889             12.339              40.294              
H              -28.115             10.047              40.038              
H              -26.685             9.822               40.794              
H              -27.7               11.024              42.666              
H              -29.126             10.745              41.923              
H              -28.132             9.115               43.628              
H              -29.107             8.62                42.414              
H              -27.485             8.507               42.258              
N              -24.434             14.375              39.891              
C              -23.346             14.904              40.688              
C              -23.699             14.797              42.171              
O              -24.627             15.464              42.624              
C              -23.067             16.391              40.324              
C              -22.709             16.816              38.869              
C              -21.989             18.16               38.85               
C              -21.727             15.866              38.274              
H              -25.33              14.92               39.724              
H              -22.523             14.357              40.522              
H              -23.89              16.923              40.586              
H              -22.305             16.706              40.914              
H              -23.556             16.88               38.344              
H              -21.144             18.093              39.38               
H              -21.772             18.408              37.906              
H              -22.58              18.86               39.251              
H              -22.11              14.936              38.249              
H              -21.497             16.142              37.334              
H              -20.881             15.85               38.819              
N              -23.05              13.924              42.93               
C              -23.262             13.913              44.378              
C              -22.111             14.733              44.967              
O              -20.934             14.41               44.785              
C              -23.254             12.462              44.918              
O              -24.246             11.761              44.189              
C              -23.509             12.383              46.422              
H              -22.415             13.286              42.437              
H              -24.109             14.374              44.58               
H              -22.353             12.053              44.723              
H              -23.205             13.231              46.86               
H              -24.488             12.256              46.592              
H              -23.003             11.611              46.81               
H              -24.74              12.383              43.568              
N              -22.428             15.808              45.678              
C              -21.485             16.785              46.188              
C              -21.54              16.806              47.721              
O              -22.594             17.042              48.334              
C              -21.891             18.123              45.55               
C              -21.831             17.983              44.021              
C              -21.015             19.248              46.08               
C              -22.521             19.151              43.314              
H              -23.477             15.896              45.849              
H              -20.572             16.458              45.945              
H              -22.827             18.314              45.801              
H              -20.884             17.956              43.742              
H              -22.289             17.145              43.765              
H              -21.311             20.116              45.685              
H              -21.093             19.292              47.075              
H              -20.064             19.077              45.829              
H              -22.067             19.999              43.573              
H              -22.456             19.016              42.329              
H              -23.477             19.178              43.593              
N              -20.386             16.571              48.349              
C              -20.28              16.627              49.81               
C              -20.402             18.084              50.297              
O              -20.076             19.001              49.54               
C              -18.927             16.013              50.267              
O              -17.74              16.663              49.787              
H              -19.588             16.35               47.727              
H              -21.045             16.112              50.2                
H              -18.905             16.017              51.279              
H              -18.904             15.046              49.967              
H              -17.366             17.232              50.514              
N              -20.855             18.392              51.524              
C              -21.111             19.751              52.028              
C              -19.979             20.749              51.852              
O              -20.195             21.909              51.578              
C              -21.455             19.574              53.507              
C              -21.965             18.15               53.593              
C              -21.251             17.385              52.499              
H              -21.98              20.117              51.615              
H              -20.646             19.689              54.08               
H              -22.164             20.216              53.791              
H              -21.757             17.763              54.496              
H              -22.959             18.131              53.454              
H              -20.446             16.902              52.866              
H              -21.863             16.699              52.082              
N              -18.742             20.331              52.022              
C              -17.6               21.188              51.91               
C              -17.301             21.557              50.47               
O              -16.462             22.429              50.22               
C              -16.371             20.509              52.564              
C              -15.936             19.168              51.994              
O              -16.781             18.307              51.762              
O              -14.736             18.971              51.791              
H              -18.669             19.302              52.249              
H              -17.815             22.053              52.395              
H              -15.598             21.156              52.49               
H              -16.582             20.389              53.544              
N              -17.942             20.875              49.514              
C              -17.864             21.245              48.105              
C              -19.147             21.962              47.738              
O              -19.372             22.259              46.576              
C              -17.745             20.024              47.225              
C              -16.298             19.679              47.038              
C              -15.497             19.359              48.123              
C              -15.801             19.682              45.768              
C              -14.171             19.04               47.913              
C              -14.484             19.364              45.558              
C              -13.684             19.049              46.624              
O              -12.37              18.735              46.377              
H              -18.496             20.065              49.864              
H              -17.103             21.878              47.988              
H              -18.193             19.269              47.666              
H              -18.134             20.227              46.345              
H              -15.872             19.36               49.041              
H              -16.386             19.911              44.997              
H              -13.577             18.806              48.679              
H              -14.106             19.362              44.626              
H              -12.148             18.968              45.432              
N              -20.029             22.238              48.683              
C              -21.265             22.885              48.407              
C              -21.416             24.013              49.432              
O              -20.617             24.963              49.404              
C              -22.383             21.823              48.478              
H              -19.729             21.936              49.644              
H              -21.244             23.294              47.5                
H              -23.029             21.983              47.737              
H              -21.976             20.918              48.386              
H              -22.847             21.9                49.356              
N              -22.352             24.005              50.369              
C              -22.592             25.158              51.216              
C              -22.089             24.984              52.646              
O              -22.402             25.768              53.539              
C              -24.093             25.405              51.179              
C              -24.599             25.795              49.804              
C              -24.357             27.082              49.318              
C              -25.255             24.86               49.027              
C              -24.77              27.433              48.037              
C              -25.679             25.199              47.75               
C              -25.422             26.468              47.288              
O              -25.805             26.782              46.019              
H              -22.889             23.116              50.442              
H              -22.108             25.958              50.812              
H              -24.559             24.571              51.454              
H              -24.308             26.145              51.807              
H              -23.89              27.748              49.888              
H              -25.423             23.948              49.377              
H              -24.603             28.336              47.677              
H              -26.158             24.536              47.185              
H              -26.415             27.575              46.04               
N              -21.327             23.934              52.881              
C              -20.735             23.583              54.163              
C              -21.698             23.668              55.329              
O              -22.826             23.176              55.377              
H              -21.17              23.33               52.012              
H              -20.358             22.636              54.108              
H              -19.938             24.196              54.341              
N              -21.173             24.367              56.315              
H              -20.209             24.735              56.116              
H              -19.8694            22.0543             41.0211             
H              -21.6518            24.5335             57.1803             
