264
1.xyz
C              11.651              31.233              45.579              
C              12.604              31.551              46.72               
O              13.421              30.723              47.108              
C              10.602              30.223              46.045              
C              9.66                30.734              47.109              
C              10.046              30.783              48.449              
C              8.369               31.146              46.777              
C              9.159               31.224              49.436              
C              7.481               31.589              47.747              
C              7.879               31.623              49.075              
O              6.984               32.041              50.038              
H              11.171              32.094              45.321              
H              10.058              29.949              45.251              
H              11.08               29.423              46.41               
H              10.966              30.5                48.711              
H              8.08                31.122              45.82               
H              9.447               31.252              50.391              
H              6.561               31.881              47.492              
H              7.465               32.145              50.906              
N              12.488              32.768              47.245              
C              13.324              33.19               48.354              
C              14.82               33.067              48.141              
O              15.324              33.196              47.021              
H              11.768              33.367              46.803              
H              13.101              34.168              48.587              
H              13.062              32.653              49.193              
N              15.536              32.804              49.229              
C              16.986              32.69               49.177              
C              17.54               31.292              48.955              
O              18.681              31.143              48.507              
C              17.595              33.237              50.464              
H              14.982              32.69               50.099              
H              17.321              33.285              48.408              
H              17.102              32.839              51.238              
H              18.554              32.953              50.501              
N              16.748              30.269              49.265              
C              17.226              28.902              49.133              
C              16.533              27.97               48.151              
O              17.054              26.895              47.863              
C              17.25               28.238              50.513              
C              18.275              28.846              51.44               
C              17.964              29.949              52.237              
C              19.577              28.349              51.481              
C              18.928              30.541              53.048              
C              20.546              28.933              52.283              
C              20.217              30.028              53.061              
O              21.187              30.618              53.831              
H              15.805              30.524              49.593              
H              18.231              28.946              48.864              
H              16.353              28.343              50.925              
H              17.469              27.277              50.392              
H              17.036              30.321              52.226              
H              19.815              27.555              50.922              
H              18.692              31.328              53.617              
H              21.475              28.566              52.298              
H              20.819              31.449              54.245              
N              15.364              28.349              47.65               
C              14.671              27.486              46.703              
C              15.188              27.801              45.316              
O              14.663              28.67               44.624              
H              15.012              29.256              47.973              
H              14.897              26.539              46.917              
N              16.238              27.083              44.937              
C              16.875              27.269              43.646              
C              18.323              26.846              43.801              
O              18.636              26.057              44.691              
H              16.56               26.383              45.64               
H              16.432              26.699              42.965              
H              16.833              28.225              43.383              
N              19.212              27.359              42.956              
C              20.622              26.998              43.059              
C              21.291              27.689              44.242              
O              22.12               27.097              44.931              
C              21.382              27.371              41.784              
C              20.92               26.673              40.544              
C              19.934              27.082              39.691              
C              21.459              25.465              39.987              
N              19.831              26.208              38.633              
C              20.756              25.207              38.789              
C              22.471              24.578              40.383              
C              21.031              24.098              37.981              
C              22.747              23.472              39.576              
C              22.027              23.244              38.389              
H              18.832              28.007              42.252              
H              20.673              26.004              43.22               
H              21.282              28.352              41.626              
H              22.348              27.147              41.908              
H              19.369              27.895              39.814              
H              19.187              26.288              37.874              
H              22.987              24.726              41.219              
H              20.51               23.946              37.137              
H              23.462              22.842              39.85               
H              22.253              22.442              37.838              
N              20.932              28.948              44.467              
C              21.519              29.704              45.56               
C              21.471              29.031              46.92               
O              20.804              28.013              47.111              
H              20.223              29.326              43.817              
H              22.497              29.919              45.33               
H              21.051              30.617              45.624              
N              22.192              29.612              47.873              
C              22.223              29.074              49.218              
C              22.906              30.015              50.193              
O              23.933              29.67               50.774              
H              22.712              30.456              47.575              
H              21.277              28.897              49.534              
H              22.71               28.186              49.216              
N              22.34               31.205              50.374              
C              22.913              32.189              51.291              
C              21.858              33.054              51.968              
O              20.718              33.147              51.511              
C              23.888              33.115              50.555              
C              25.135              32.448              50.015              
C              26.021              33.464              49.314              
C              27.221              32.802              48.653              
N              28.047              33.786              47.897              
H              21.479              31.37               49.822              
H              23.437              31.697              52.008              
H              23.395              33.535              49.787              
H              24.166              33.84               51.194              
H              25.645              32.043              50.77               
H              24.875              31.742              49.362              
H              25.488              33.927              48.612              
H              26.352              34.122              49.984              
H              27.787              32.373              49.361              
H              26.895              32.093              48.022              
H              28.027              33.556              46.925              
H              27.675              34.703              48.033              
H              28.988              33.753              48.231              
N              22.258              33.692              53.062              
C              21.359              34.574              53.782              
C              20.344              33.911              54.688              
O              20.367              32.698              54.912              
H              23.237              33.508              53.344              
H              21.92               35.238              54.34               
H              20.86               35.169              53.101              
N              19.445              34.732              55.219              
C              18.397              34.262              56.113              
C              17.162              33.885              55.305              
O              16.669              34.683              54.505              
C              18.009              35.36               57.118              
O              19.172              35.754              57.854              
C              16.944              34.857              58.082              
H              19.555              35.732              54.942              
H              18.725              33.443              56.59               
H              17.667              36.171              56.604              
H              16.041              35.181              57.79               
H              16.945              33.855              58.096              
H              17.133              35.199              59.005              
H              20.005              35.437              57.388              
N              16.657              32.653              55.489              
C              15.468              32.207              54.758              
C              14.346              33.23               54.926              
O              14.097              33.71               56.034              
C              15.147              30.867              55.415              
C              16.499              30.349              55.773              
C              17.175              31.578              56.354              
H              15.676              32.062              53.79               
H              14.586              30.996              56.228              
H              14.687              30.259              54.775              
H              16.436              29.63               56.453              
H              16.983              30.031              54.968              
H              16.905              31.724              57.299              
H              18.165              31.512              56.282              
N              13.676              33.562              53.826              
C              12.611              34.559              53.847              
C              11.372              34.179              54.649              
O              10.755              35.036              55.283              
C              12.184              34.907              52.42               
C              13.309              35.419              51.528              
C              14.072              36.573              52.169              
C              13.173              37.758              52.469              
N              13.943              38.875              53.097              
H              13.972              33.059              52.967              
H              12.991              35.43               54.234              
H              11.802              34.085              51.999              
H              11.477              35.614              52.469              
H              13.95               34.669              51.349              
H              12.92               35.732              50.659              
H              14.475              36.253              53.024              
H              14.791              36.868              51.544              
H              12.764              38.084              51.616              
H              12.448              37.47               53.096              
H              14.282              38.579              53.988              
H              14.711              39.116              52.507              
H              13.343              39.665              53.209              
N              11.004              32.903              54.611              
C              9.82                32.433              55.328              
C              9.839               30.912              55.522              
O              10.869              30.275              55.312              
C              8.554               32.858              54.578              
C              8.447               32.242              53.19               
O              9.335               31.463              52.797              
O              7.458               32.542              52.492              
H              11.612              32.286              54.044              
H              9.844               32.845              56.248              
H              7.768               32.571              55.114              
H              8.568               33.847              54.486              
N              8.707               30.34               55.933              
C              8.619               28.898              56.165              
C              8.988               28.09               54.925              
O              9.765               27.14               55.007              
C              7.209               28.518              56.639              
H              7.913               30.991              56.071              
H              9.257               28.652              56.911              
H              7.281               27.88               57.403              
H              6.729               29.342              56.932              
H              6.715               28.089              55.886              
N              8.425               28.464              53.782              
C              8.708               27.761              52.536              
C              10.199              27.806              52.224              
O              10.795              26.791              51.861              
C              7.911               28.37               51.361              
O              6.514               28.12               51.558              
C              8.336               27.748              50.037              
H              7.786               29.275              53.851              
H              8.436               26.799              52.642              
H              8.058               29.378              51.355              
H              8.094               28.36               49.281              
H              9.327               27.599              50.035              
H              7.871               26.869              49.91               
H              6.339               27.841              52.508              
N              10.803              28.983              52.37               
C              12.229              29.133              52.109              
C              13.021              28.249              53.079              
O              14.029              27.66               52.701              
C              12.641              30.601              52.264              
C              13.871              30.959              51.44               
O              14.304              30.137              50.606              
O              14.399              32.073              51.619              
H              10.189              29.757              52.676              
H              12.405              28.783              51.188              
H              11.882              31.167              51.964              
H              12.842              30.765              53.222              
N              12.565              28.153              54.326              
C              13.256              27.306              55.296              
C              13.184              25.839              54.87               
O              14.089              25.06               55.165              
C              12.679              27.493              56.708              
C              13.118              28.801              57.36               
C              12.833              28.824              58.863              
N              11.408              28.81               59.173              
C              10.606              29.868              59.109              
N              11.079              31.052              58.741              
N              9.325               29.739              59.425              
H              11.723              28.702              54.535              
H              14.221              27.58               55.338              
H              11.692              27.498              56.641              
H              12.995              26.746              57.274              
H              14.1                28.924              57.231              
H              12.625              29.562              56.942              
H              13.269              28.021              59.268              
H              13.247              29.654              59.238              
H              10.998              27.93               59.458              
H              12.037              31.164              58.487              
H              10.464              31.848              58.716              
H              8.963               28.843              59.691              
H              8.718               30.533              59.398              
N              12.112              25.457              54.181              
H              11.401              26.179              54.024              
H              12.1321             30.853              44.7143             
H              13.6144             27.6423             46.7431             
H              17.5595             34.304              50.5592             
H              12.0384             24.5015             53.8479             
