270
5.xyz
C              29.098              12.69               49.265              
O              29.741              12.872              48.23               
N              28.682              11.493              49.657              
C              28.978              10.292              48.884              
C              27.967              10.045              47.771              
O              28.02               9.016               47.096              
C              29.038              9.075               49.816              
C              27.729              8.827               50.547              
O              27.197              9.777               51.157              
O              27.236              7.68                50.516              
H              28.14               11.485              50.542              
H              29.877              10.437              48.44               
H              29.252              8.277               49.264              
H              29.752              9.237               50.486              
N              27.058              10.994              47.567              
C              26.033              10.853              46.537              
C              25.963              12.043              45.584              
O              26.644              13.048              45.771              
C              24.66               10.681              47.187              
S              24.564              9.433               48.507              
H              27.139              11.82               48.186              
H              26.249              10.026              45.988              
H              24.385              11.565              47.575              
H              24.006              10.425              46.47               
N              25.119              11.906              44.564              
C              24.885              12.947              43.565              
C              23.378              13.213              43.608              
O              22.638              12.796              42.72               
C              25.278              12.45               42.171              
C              26.724              12.01               42.096              
H              24.63               10.977              44.537              
H              25.331              13.766              43.882              
H              24.696              11.676              41.939              
H              25.135              13.193              41.522              
O              27.639              12.802              42.33               
N              26.94               10.739              41.772              
H              26.165              10.133              41.587              
H              27.873              10.388              41.712              
N              22.913              13.925              44.646              
C              21.498              14.26               44.852              
C              20.691              14.82               43.681              
O              19.56               14.391              43.446              
C              21.541              15.219              46.047              
C              22.899              15.837              45.948              
C              23.762              14.656              45.602              
H              21.002              13.437              45.258              
H              20.826              15.911              45.969              
H              21.435              14.72               46.904              
H              22.922              16.52               45.228              
H              23.167              16.234              46.817              
H              24.613              14.938              45.17               
H              23.953              14.095              46.403              
N              21.257              15.767              42.942              
C              20.528              16.36               41.831              
C              20.498              15.523              40.556              
O              19.613              15.705              39.72               
C              21.082              17.756              41.521              
C              20.817              18.779              42.621              
C              21.178              20.197              42.192              
C              22.667              20.341              41.921              
N              23.482              19.975              43.114              
H              22.213              16.031              43.214              
H              19.561              16.527              42.128              
H              22.067              17.679              41.396              
H              20.655              18.081              40.682              
H              19.844              18.753              42.862              
H              21.36               18.538              43.428              
H              20.68               20.416              41.358              
H              20.925              20.827              42.92               
H              22.918              19.743              41.156              
H              22.862              21.292              41.669              
H              23.883              20.802              43.507              
H              22.896              19.532              43.791              
H              24.209              19.348              42.838              
N              21.439              14.594              40.41               
C              21.483              13.773              39.202              
C              22.866              13.874              38.555              
O              23.875              13.39               39.421              
H              22.104              14.509              41.189              
H              20.826              14.181              38.525              
H              22.868              13.333              37.718              
H              23.051              14.83               38.343              
H              23.481              13.199              40.319              
C              7.128               5.754               50.334              
C              8.361               5.558               49.469              
O              8.263               5.168               48.306              
C              6.364               4.414               50.401              
C              7.266               3.336               50.991              
C              5.11                4.573               51.238              
H              7.428               6.045               51.24               
H              6.154               4.14                49.472              
H              7.402               2.611               50.317              
H              8.149               3.737               51.233              
H              6.837               2.955               51.809              
H              5.34                4.468               52.206              
H              4.72                5.481               51.084              
H              4.444               3.874               50.976              
N              9.525               5.842               50.035              
C              10.765              5.689               49.295              
C              11.141              4.219               49.108              
O              11.322              3.485               50.081              
C              11.882              6.445               50.009              
S              11.719              8.255               49.849              
H              9.473               6.17                51.013              
H              10.643              6.096               48.378              
H              11.851              6.221               50.972              
H              12.748              6.181               49.609              
N              11.239              3.797               47.848              
C              11.598              2.421               47.511              
C              12.971              2.118               48.095              
O              13.788              3.021               48.263              
C              11.652              2.248               45.989              
C              10.357              2.577               45.266              
C              9.389               1.413               45.23               
O              9.096               0.841               46.301              
O              8.916               1.072               44.123              
H              11.039              4.526               47.131              
H              10.924              1.793               47.893              
H              12.35               2.855               45.645              
H              11.867              1.304               45.803              
H              9.917               3.316               45.743              
H              10.573              2.813               44.336              
N              13.224              0.853               48.407              
C              14.524              0.545               48.922              
C              15.522              0.179               47.841              
O              15.671              -0.991              47.453              
C              14.466              -0.555              49.938              
C              15.837              -0.824              50.554              
C              15.924              -0.295              51.973              
C              16.79               0.952               52.055              
N              17.578              1.006               53.316              
H              12.469              0.192               48.256              
H              14.884              1.354               49.429              
H              13.851              -0.294              50.669              
H              14.161              -1.39               49.499              
H              15.999              -1.811              50.563              
H              16.536              -0.378              49.995              
H              15.008              -0.065              52.289              
H              16.323              -0.996              52.557              
H              17.42               0.962               51.272              
H              16.198              1.763               52.001              
H              17.785              0.076               53.618              
H              18.43               1.503               53.154              
H              17.046              1.475               54.02               
N              16.212              1.22                47.393              
C              17.206              1.069               46.348              
C              18.578              1.138               46.985              
O              18.789              0.572               48.058              
H              15.982              2.125               47.845              
H              17.091              0.187               45.897              
H              17.11               1.804               45.681              
N              19.514              1.825               46.339              
C              20.857              1.953               46.894              
C              20.764              2.891               48.088              
O              19.77               3.6                 48.242              
C              21.849              2.555               45.878              
O              21.574              3.952               45.702              
C              21.727              1.847               44.535              
H              19.218              2.244               45.445              
H              21.156              1.062               47.214              
H              22.795              2.461               46.248              
H              20.763              1.798               44.263              
H              22.24               2.352               43.837              
H              22.096              0.918               44.606              
H              20.949              4.089               44.927              
N              21.789              2.889               48.934              
C              21.797              3.758               50.104              
C              21.592              5.206               49.674              
O              20.806              5.938               50.278              
C              23.122              3.63                50.859              
O              23.144              4.492               51.982              
H              22.555              2.237               48.696              
H              21.028              3.499               50.692              
H              23.225              2.691               51.168              
H              23.865              3.877               50.245              
H              23.752              5.264               51.799              
N              22.301              5.613               48.625              
C              22.185              6.974               48.118              
C              20.783              7.301               47.624              
O              20.23               8.348               47.961              
C              23.183              7.215               46.985              
S              24.857              7.678               47.53               
H              22.925              4.897               48.213              
H              22.408              7.613               48.874              
H              23.254              6.377               46.447              
H              22.831              7.953               46.41               
N              20.207              6.413               46.819              
C              18.871              6.648               46.288              
C              17.849              6.79                47.411              
O              16.971              7.65                47.355              
C              18.465              5.509               45.35               
C              19.483              5.244               44.257              
C              19.095              4.08                43.366              
O              18.549              3.084               43.886              
O              19.35               4.157               42.148              
H              20.771              5.574               46.612              
H              18.871              7.486               45.728              
H              18.384              4.693               45.889              
H              17.622              5.763               44.919              
H              19.544              6.044               43.69               
H              20.342              5.02                44.679              
N              17.972              5.953               48.437              
C              17.045              6.004               49.561              
C              17.167              7.321               50.317              
O              16.166              7.965               50.629              
C              17.303              4.843               50.53               
C              17.164              3.486               49.868              
H              18.758              5.285               48.368              
H              16.113              5.968               49.181              
H              18.229              4.932               50.885              
H              16.643              4.905               51.274              
O              16.198              3.228               49.154              
N              18.129              2.604               50.113              
H              18.89               2.855               50.714              
H              18.095              1.696               49.701              
N              18.399              7.726               50.606              
C              18.615              8.965               51.339              
C              18.191              10.196              50.548              
O              17.592              11.115              51.105              
C              20.082              9.079               51.769              
C              20.462              8.134               52.913              
C              21.951              8.224               53.229              
N              22.765              7.53                52.233              
C              24.022              7.843               51.94               
N              24.623              8.85                52.562              
N              24.684              7.143               51.026              
H              19.156              7.109               50.278              
H              18.076              8.934               52.198              
H              20.655              8.859               50.989              
H              20.248              10.009              52.074              
H              19.954              8.385               53.729              
H              20.256              7.199               52.648              
H              22.204              9.187               53.249              
H              22.1                7.811               54.123              
H              22.343              6.762               51.735              
H              24.153              9.372               53.268              
H              25.57               9.09                52.317              
H              24.235              6.367               50.575              
H              25.622              7.385               50.789              
N              18.501              10.223              49.255              
C              18.115              11.358              48.417              
C              16.591              11.447              48.403              
O              16.013              12.527              48.546              
C              18.617              11.174              46.967              
C              20.144              11.206              46.945              
C              18.05               12.275              46.064              
C              20.735              10.89               45.581              
H              19.019              9.402               48.907              
H              18.444              12.174              48.882              
H              18.321              10.282              46.654              
H              20.448              12.113              47.225              
H              20.483              10.535              47.601              
H              18.368              12.13               45.13               
H              17.054              12.24               46.09               
H              18.364              13.162              46.392              
H              20.409              11.562              44.919              
H              21.731              10.928              45.638              
H              20.448              9.976               45.303              
N              15.949              10.298              48.232              
C              14.496              10.235              48.204              
C              14.036              8.79                47.997              
S              12.231              8.577               47.911              
H              16.562              9.467               48.122              
H              14.167              10.803              47.44               
H              14.428              8.457               47.142              
H              14.376              8.242               48.76               
H              21.2173             12.7152             39.3212             
H              6.54278             6.52848             49.9111             
H              14.0673             10.6343             49.1311             
H              28.8418             13.5066             49.8974             
