193
1.xyz
C              -9.164              5.33                -2.696              
O              -9.828              6.072               -3.41               
N              -8.031              4.698               -3.073              
C              -7.508              4.823               -4.442              
C              -7.081              3.449               -4.964              
O              -6.781              2.508               -4.238              
C              -6.461              5.94                -4.617              
C              -5.102              5.733               -3.923              
C              -4.093              4.964               -4.779              
C              -4.464              7.08                -3.598              
H              -7.582              4.138               -2.334              
H              -8.238              5.173               -5.03               
H              -6.282              6.037               -5.593              
H              -6.852              6.782               -4.256              
H              -5.254              5.231               -3.06               
H              -3.926              5.468               -5.625              
H              -3.238              4.865               -4.272              
H              -4.463              4.061               -4.994              
H              -5.067              7.596               -2.989              
H              -3.583              6.931               -3.148              
H              -4.324              7.595               -4.444              
N              -7.087              3.451               -6.303              
C              -6.796              2.283               -7.104              
C              -5.288              2.107               -7.353              
O              -4.479              3.023               -7.268              
C              -7.484              2.562               -8.474              
O              -8.948              2.819               -8.554              
H              -7.325              4.388               -6.718              
H              -7.115              1.463               -6.605              
H              -7.022              3.369               -8.912              
H              -7.293              1.77                -9.101              
H              -9.083              3.795               -8.485              
N              -5.031              0.835               -7.709              
C              -3.718              0.306               -8.051              
C              -3.927              -0.969              -8.857              
O              -4.93               -1.658              -8.742              
C              -2.823              0.001               -6.837              
C              -3.434              -0.874              -5.77               
C              -4.127              -0.287              -4.716              
C              -3.274              -2.258              -5.779              
C              -4.623              -1.062              -3.679              
C              -3.753              -3.033              -4.731              
C              -4.425              -2.434              -3.675              
H              -5.905              0.231               -7.718              
H              -3.286              0.964               -8.659              
H              -2.005              -0.456              -7.175              
H              -2.581              0.871               -6.417              
H              -4.27               0.697               -4.705              
H              -2.811              -2.696              -6.548              
H              -5.129              -0.619              -2.926              
H              -3.607              -4.036              -4.742              
H              -4.765              -2.985              -2.916              
N              -2.911              -1.206              -9.697              
C              -2.878              -2.369              -10.56              
C              -1.828              -3.314              -9.985              
O              -0.822              -2.877              -9.443              
C              -2.466              -1.915              -11.967             
C              -3.481              -0.952              -12.604             
C              -2.876              -0.146              -13.76              
C              -1.955              0.981               -13.272             
N              -1.41               1.775               -14.371             
H              -2.159              -0.484              -9.67               
H              -3.76               -2.822              -10.539             
H              -1.596              -1.446              -11.903             
H              -2.395              -2.716              -12.547             
H              -4.254              -1.484              -12.953             
H              -3.806              -0.316              -11.903             
H              -2.342              -0.761              -14.334             
H              -3.616              0.26                -14.289             
H              -2.487              1.571               -12.651             
H              -1.205              0.564               -12.743             
H              -1.985              2.582               -14.532             
H              -0.479              2.08                -14.148             
H              -1.379              1.226               -15.211             
N              -2.14               -4.615              -10.12              
C              -1.257              -5.691              -9.663              
C              0.226               -5.475              -10.073             
O              0.645               -5.83               -11.169             
C              -1.791              -6.996              -10.266             
C              -1.094              -8.248              -9.721              
C              -0.038              -8.839              -10.658             
N              0.192               -10.227             -10.281             
C              1.054               -11.022             -10.944             
N              1.807               -10.551             -11.93              
N              1.146               -12.299             -10.605             
H              -3.061              -4.787              -10.576             
H              -1.295              -5.741              -8.653              
H              -2.756              -7.068              -10.053             
H              -1.647              -6.97               -11.246             
H              -0.643              -8.021              -8.851              
H              -1.784              -8.959              -9.547              
H              -0.387              -8.796              -11.575             
H              0.789               -8.321              -10.546             
H              -0.3                -10.608             -9.509              
H              1.757               -9.585              -12.182             
H              2.428               -11.163             -12.422             
H              0.595               -12.662             -9.852              
H              1.769               -12.907             -11.101             
N              0.971               -4.881              -9.112              
C              2.391               -4.587              -9.281              
C              2.791               -3.113              -9.069              
O              3.93                -2.763              -9.357              
H              0.435               -4.656              -8.246              
H              2.934               -5.166              -8.635              
H              2.684               -4.87               -10.22              
N              1.857               -2.259              -8.57               
C              2.246               -0.868              -8.369              
C              3.123               -0.718              -7.118              
O              3.022               -1.464              -6.151              
C              1.015               0.046               -8.19               
C              0.195               0.297               -9.475              
O              0.472               -0.309              -10.511             
O              -0.724              1.114               -9.429              
H              0.954               -2.658              -8.374              
H              2.813               -0.597              -9.155              
H              0.412               -0.378              -7.515              
H              1.333               0.928               -7.847              
N              3.973               0.326               -7.225              
C              4.867               0.714               -6.145              
C              4.214               1.958               -5.512              
O              4.06                3.013               -6.116              
C              6.306               0.948               -6.641              
C              6.832               -0.322              -7.346              
C              7.223               1.342               -5.471              
C              8.279               -0.211              -7.835              
H              3.925               0.816               -8.142              
H              4.818               0.004               -5.466              
H              6.289               1.679               -7.31               
H              6.767               -1.084              -6.708              
H              6.246               -0.506              -8.132              
H              8.138               1.52                -5.821              
H              6.861               2.162               -5.036              
H              7.252               0.594               -4.814              
H              8.871               -0.036              -7.053              
H              8.537               -1.067              -8.274              
H              8.342               0.54                -8.486              
N              3.836               1.707               -4.248              
C              3.145               2.607               -3.357              
C              4.123               3.172               -2.336              
O              5.215               2.654               -2.126              
C              2.168               1.688               -2.603              
C              0.905               1.259               -3.362              
C              1.002               1.305               -4.881              
C              0.449               -0.153              -2.987              
H              4.113               0.713               -3.944              
H              2.769               3.371               -3.888              
H              2.662               0.858               -2.356              
H              1.873               2.168               -1.782              
H              0.131               1.853               -3.061              
H              1.734               0.696               -5.187              
H              0.134               1.009               -5.28               
H              1.202               2.24                -5.175              
H              0.249               -0.186              -2.009              
H              -0.373              -0.383              -3.506              
H              1.176               -0.803              -3.203              
N              3.628               4.25                -1.703              
C              4.435               4.893               -0.67               
C              3.566               5.097               0.565               
O              2.692               5.946               0.599               
C              5.064               6.19                -1.181              
C              6.305               6.552               -0.368              
C              6.731               8.01                -0.544              
C              7.027               8.678               0.798               
N              7.215               10.114              0.627               
H              2.702               4.551               -1.995              
H              5.197               4.295               -0.433              
H              5.334               6.059               -2.119              
H              4.406               6.916               -1.085              
H              6.115               6.389               0.606               
H              7.065               5.959               -0.651              
H              7.555               8.038               -1.099              
H              5.995               8.508               -0.989              
H              6.257               8.501               1.414               
H              7.856               8.264               1.179               
H              7.24                10.346              -0.35               
H              6.46                10.616              1.059               
H              8.079               10.403              1.05                
N              3.922               4.33                1.608               
C              3.118               4.35                2.818               
C              3.229               2.977               3.489               
C              2.36                2.862               4.749               
C              2.883               1.851               2.504               
H              4.764               3.766               1.472               
H              2.178               4.57                2.569               
H              4.179               2.853               3.787               
H              1.414               3.075               4.515               
H              2.419               1.931               5.103               
H              2.691               3.506               5.435               
H              3.289               2.061               1.617               
H              3.251               0.992               2.853               
H              1.891               1.789               2.42                
H              -9.43621            5.09897             -1.68252            
H              3.49358             5.14927             3.46144             
