293
3.xyz
C              0.588               7.181               -2.29               
C              0.864               6.515               -3.65               
O              1.743               5.679               -3.817              
C              1.678               8.22                -1.994              
C              1.78                9.365               -3.024              
C              2.926               10.347              -2.709              
O              3.825               9.999               -1.938              
O              2.907               11.453              -3.248              
H              -0.31               7.642               -2.326              
H              1.475               8.632               -1.123              
H              2.546               7.756               -1.99               
H              1.966               8.971               -3.899              
H              0.946               9.874               -2.999              
N              0.033               7.005               -4.588              
C              0.035               6.643               -5.995              
C              -0.681              7.639               -6.87               
O              -1.745              8.158               -6.556              
C              -0.812              5.393               -6.272              
C              -0.145              4.061               -6.209              
C              -1.264              3.037               -6.372              
C              0.84                3.934               -7.365              
H              -0.656              7.713               -4.187              
H              1.003               6.576               -6.306              
H              -1.568              5.398               -5.604              
H              -1.206              5.505               -7.193              
H              0.281               3.933               -5.333              
H              -1.718              3.177               -7.252              
H              -0.879              2.115               -6.338              
H              -1.927              3.149               -5.633              
H              1.529               4.656               -7.297              
H              1.289               3.041               -7.324              
H              0.349               4.022               -8.232              
N              -0.029              7.768               -8.042              
C              -0.599              8.507               -9.15               
C              -1.011              9.955               -8.818              
O              -2.038              10.45               -9.265              
C              -1.754              7.575               -9.6                
C              -1.783              7.338               -11.106             
H              0.895               7.298               -8.068              
H              0.116               8.573               -9.875              
H              -1.639              6.699               -9.141              
H              -2.613              7.997               -9.326              
O              -2.049              8.217               -11.913             
N              -1.474              6.066               -11.405             
H              -1.265              5.381               -10.738             
H              -1.459              5.801               -12.395             
N              -0.146              10.588              -7.997              
C              -0.373              11.966              -7.574              
C              -1.53               12.132              -6.576              
O              -2.028              13.233              -6.376              
H              0.665               10.018              -7.708              
H              0.478               12.333              -7.151              
H              -0.562              12.543              -8.392              
N              -1.933              10.989              -5.974              
C              -3.007              10.941              -5.002              
C              -2.524              10.086              -3.821              
O              -1.495              9.426               -3.889              
C              -4.243              10.33               -5.689              
C              -4.766              11.22               -6.827              
C              -6.091              10.723              -7.417              
C              -6.599              11.643              -8.533              
N              -7.9                11.231              -9.056              
H              -1.391              10.147              -6.281              
H              -3.197              11.858              -4.669              
H              -3.987              9.458               -6.071              
H              -4.958              10.236              -5.015              
H              -4.901              12.15               -6.473              
H              -4.079              11.247              -7.558              
H              -5.951              9.815               -7.797              
H              -6.773              10.698              -6.695              
H              -6.657              12.58               -8.163              
H              -5.914              11.643              -9.274              
H              -8.634              11.565              -8.458              
H              -8.036              11.607              -9.977              
H              -7.951              10.229              -9.104              
N              -3.337              10.144              -2.752              
C              -3.062              9.388               -1.529              
C              -4.428              8.89                -0.993              
O              -5.425              9.605               -1.013              
C              -2.204              10.219              -0.546              
C              -3.002              10.933              0.56                
O              -3.373              10.267              1.524               
O              -3.237              12.136              0.451               
H              -4.161              10.762              -2.872              
H              -2.548              8.582               -1.783              
H              -1.552              9.6                 -0.112              
H              -1.715              10.909              -1.075              
N              -4.412              7.617               -0.55               
C              -5.656              7.014               -0.089              
C              -5.429              5.663               0.564               
O              -4.324              5.137               0.629               
H              -3.506              7.154               -0.57               
H              -6.103              7.635               0.574               
H              -6.286              6.905               -0.874              
N              -6.58               5.129               1.008               
C              -6.608              3.843               1.686               
C              -6.545              2.676               0.68                
O              -7.117              2.715               -0.402              
C              -7.86               3.803               2.564               
C              -7.737              4.818               3.667               
C              -6.97               4.546               4.796               
C              -8.362              6.053               3.559               
C              -6.821              5.501               5.793               
C              -8.209              7.013               4.548               
C              -7.441              6.738               5.67                
H              -7.42               5.707               0.825               
H              -5.773              3.779               2.244               
H              -8.623              4.043               2.013               
H              -7.918              2.92                2.967               
H              -6.524              3.664               4.892               
H              -8.928              6.252               2.759               
H              -6.262              5.29                6.604               
H              -8.662              7.914               4.447               
H              -7.331              7.423               6.388               
N              -5.774              1.656               1.114               
C              -5.561              0.433               0.343               
C              -5.58               -0.752              1.34                
O              -5.067              -0.616              2.441               
C              -4.23               0.526               -0.437              
C              -2.998              0.69                0.477               
C              -4.28               1.657               -1.481              
C              -1.667              0.577               -0.269              
H              -5.345              1.824               2.052               
H              -6.357              0.318               -0.234              
H              -4.115              -0.327              -0.953              
H              -3.047              1.582               0.913               
H              -3.031              -0.02               1.174               
H              -3.454              1.623               -2.036              
H              -5.081              1.531               -2.058              
H              -4.336              2.532               -1.009              
H              -1.626              1.288               -0.965              
H              -0.921              0.693               0.382               
H              -1.611              -0.322              -0.696              
N              -6.182              -1.917              0.953               
C              -6.241              -3.079              1.844               
C              -4.879              -3.763              2.049               
O              -4.126              -3.906              1.095               
C              -7.224              -4.054              1.189               
C              -7.569              -3.486              -0.189              
C              -6.852              -2.14               -0.329              
H              -6.643              -2.822              2.742               
H              -6.812              -4.97               1.089               
H              -8.063              -4.148              1.741               
H              -7.268              -4.124              -0.907              
H              -8.566              -3.366              -0.269              
H              -6.186              -2.172              -1.084              
H              -7.515              -1.406              -0.523              
N              -4.601              -4.213              3.306               
C              -3.29               -4.863              3.493               
C              -3.228              -6.263              2.83                
O              -2.141              -6.748              2.553               
C              -2.935              -5.05               4.981               
C              -3.291              -3.873              5.891               
C              -2.793              -4.024              7.339               
C              -2.959              -5.426              7.93                
N              -2.56               -5.483              9.332               
H              -5.296              -4.072              4.001               
H              -2.578              -4.284              3.074               
H              -3.419              -5.86               5.315               
H              -1.948              -5.208              5.045               
H              -2.893              -3.03               5.505               
H              -4.294              -3.765              5.91                
H              -1.817              -3.783              7.364               
H              -3.298              -3.375              7.917               
H              -3.925              -5.693              7.835               
H              -2.4                -6.064              7.386               
H              -2.779              -6.384              9.718               
H              -1.571              -5.326              9.417               
H              -3.045              -4.779              9.859               
N              -4.406              -6.89               2.574               
C              -4.398              -8.221              1.939               
C              -4.196              -8.166              0.409               
O              -3.849              -9.171              -0.198              
C              -5.559              -9.119              2.378               
C              -6.877              -8.372              2.47                
H              -5.242              -6.381              2.847               
H              -3.607              -8.725              2.318               
H              -5.656              -9.854              1.713               
H              -5.343              -9.495              3.275               
O              -7.176              -7.753              3.479               
N              -7.637              -8.463              1.377               
H              -7.348              -8.985              0.585               
H              -8.528              -7.988              1.358               
N              -4.344              -6.955              -0.172              
C              -4.109              -6.849              -1.619              
C              -2.641              -6.466              -1.959              
O              -2.285              -6.39               -3.129              
C              -5.07               -5.796              -2.206              
C              -6.371              -6.401              -2.65               
C              -7.295              -6.901              -1.744              
C              -6.654              -6.484              -4.006              
C              -8.471              -7.491              -2.188              
C              -7.818              -7.073              -4.465              
C              -8.75               -7.594              -3.559              
O              -9.914              -8.239              -3.983              
H              -4.609              -6.196              0.435               
H              -4.292              -7.749              -2.038              
H              -5.253              -5.125              -1.502              
H              -4.627              -5.382              -2.989              
H              -7.116              -6.839              -0.764              
H              -6.001              -6.108              -4.667              
H              -9.137              -7.85               -1.524              
H              -8.004              -7.132              -5.448              
H              -9.962              -8.188              -4.976              
N              -1.82               -6.245              -0.902              
C              -0.397              -5.889              -1.07               
C              0.512               -6.75               -0.15               
O              0.081               -7.302              0.854               
C              -0.183              -4.356              -0.871              
C              1.017               -3.991              0.032               
C              -1.45               -3.628              -0.4                
C              1.163               -2.514              0.287               
H              -2.278              -6.348              0.021               
H              -0.154              -6.135              -2.01               
H              -0.017              -3.954              -1.779              
H              0.903               -4.468              0.901               
H              1.845               -4.33               -0.413              
H              -1.297              -2.644              -0.442              
H              -2.21               -3.877              -0.994              
H              -1.653              -3.898              0.537               
H              0.339               -2.169              0.738               
H              1.956               -2.353              0.875               
H              1.291               -2.035              -0.582              
N              1.792               -6.801              -0.591              
C              2.914               -7.438              0.088               
C              3.749               -6.261              0.618               
O              4.273               -5.446              -0.131              
C              3.762               -8.296              -0.856              
C              4.926               -8.978              -0.113              
C              5.699               -9.95               -1.018              
O              6.34                -9.489              -1.962              
O              5.656               -11.153             -0.765              
H              1.908               -6.306              -1.53               
H              2.597               -7.978              0.84                
H              3.196               -9                  -1.216              
H              4.15                -7.713              -1.53               
H              5.551               -8.285              0.174               
H              4.555               -9.498              0.625               
N              3.815               -6.236              1.952               
C              4.492               -5.174              2.67                
C              5.979               -5.499              2.866               
O              6.387               -6.632              3.092               
C              3.746               -4.998              3.995               
C              2.216               -4.905              3.794               
S              1.321               -5.316              5.293               
C              1.893               -6.997              5.561               
H              3.342               -7.038              2.419               
H              4.435               -4.33               2.123               
H              3.932               -5.779              4.588               
H              4.05                -4.157              4.438               
H              2                   -3.959              3.479               
H              1.963               -5.528              3.027               
H              2.89                -7.026              5.488               
H              1.617               -7.302              6.473               
H              1.491               -7.6                4.872               
N              6.74                -4.392              2.786               
C              8.192               -4.384              2.901               
C              8.547               -2.977              3.428               
O              8.861               -2.086              2.653               
C              8.828               -4.578              1.498               
C              8.445               -5.873              0.757               
C              9.116               -7.136              1.315               
C              10.547              -7.336              0.799               
N              10.587              -7.702              -0.616              
H              6.176               -3.514              2.629               
H              8.475               -5.047              3.57                
H              8.554               -3.801              0.927               
H              9.824               -4.567              1.61                
H              7.445               -5.99               0.811               
H              8.699               -5.776              -0.213              
H              9.148               -7.067              2.311               
H              8.572               -7.931              1.05                
H              11.055              -6.478              0.948               
H              10.981              -8.057              1.354               
H              10.327              -8.665              -0.73               
H              9.949               -7.129              -1.138              
H              11.513              -7.57               -0.98               
N              8.47                -2.79               4.78                
C              8.739               -1.49               5.404               
C              10.188              -0.999              5.227               
O              10.592              -0.637              4.13                
C              8.249               -1.659              6.853               
C              8.337               -3.163              7.118               
C              8.09                -3.819              5.754               
O              11.086              -0.897              6.059               
H              8.087               -0.787              5.061               
H              8.837               -1.163              7.49                
H              7.307               -1.347              6.951               
H              9.241               -3.398              7.463               
H              7.638               -3.436              7.772               
H              8.655               -4.639              5.65                
H              7.125               -4.071              5.654               
H              0.599646            6.48077             -1.49005            
