370
0.xyz
N              -16.965             4.129               0.039               
C              -15.938             4.569               1.018               
C              -14.73              5.171               0.31                
O              -14.707             5.283               -0.916              
C              -15.484             3.394               1.916               
C              -15.282             3.872               3.355               
C              -14.213             2.74                1.385               
C              -15.561             2.805               4.39                
H              -17.758             3.776               0.53                
H              -16.366             5.306               1.546               
H              -16.207             2.713               1.914               
H              -14.34              4.184               3.455               
H              -15.895             4.644               3.516               
H              -13.979             1.956               1.957               
H              -14.364             2.435               0.447               
H              -13.466             3.402               1.405               
H              -14.947             2.031               4.242               
H              -15.411             3.182               5.303               
H              -16.509             2.501               4.305               
H              -17.237             4.906               -0.524              
H              -16.582             3.412               -0.54               
N              -13.725             5.548               1.09                
C              -12.512             6.129               0.538               
C              -11.283             5.36                1.004               
O              -11.124             5.083               2.193               
C              -12.364             7.612               0.936               
C              -11.116             8.224               0.314               
C              -13.603             8.394               0.537               
H              -13.878             5.395               2.105               
H              -12.558             6.061               -0.466              
H              -12.245             7.649               1.925               
H              -10.335             7.619               0.468               
H              -11.257             8.342               -0.669              
H              -10.936             9.113               0.734               
H              -13.445             8.838               -0.345              
H              -14.38              7.769               0.463               
H              -13.796             9.088               1.232               
N              -10.416             5.02                0.06                
C              -9.197              4.282               0.374               
C              -7.969              5.007               -0.159              
O              -8.079              5.938               -0.957              
C              -9.26               2.869               -0.214              
S              -10.647             1.862               0.404               
H              -10.673             5.317               -0.9                
H              -9.114              4.221               1.375               
H              -9.351              2.946               -1.203              
H              -8.412              2.398               0.014               
N              -6.798              4.568               0.288               
C              -5.542              5.166               -0.141              
C              -4.951              4.394               -1.313              
O              -4.941              3.163               -1.315              
C              -4.548              5.195               1.019               
C              -5.088              5.854               2.249               
N              -5.205              5.204               3.457               
C              -5.545              7.113               2.458               
C              -5.709              6.03                4.353               
N              -5.928              7.195               3.772               
H              -6.857              3.775               0.958               
H              -5.723              6.108               -0.444              
H              -4.289              4.252               1.253               
H              -3.723              5.692               0.731               
H              -5.595              7.843               1.781               
H              -5.896              5.813               5.308               
H              -6.31               8.006               4.219               
N              -4.458              5.122               -2.308              
C              -3.867              4.497               -3.483              
C              -2.427              4.951               -3.684              
O              -2.034              6.04                -3.259              
C              -4.695              4.804               -4.736              
O              -4.807              3.653               -5.554              
C              -4.123              5.918               -5.593              
H              -4.529              6.148               -2.178              
H              -3.868              3.497               -3.349              
H              -5.638              5.088               -4.445              
H              -4.337              5.751               -6.559              
H              -4.519              6.798               -5.319              
H              -3.127              5.959               -5.481              
H              -4.325              2.871               -5.139              
N              -1.659              4.108               -4.353              
C              -0.262              4.399               -4.644              
C              0.051               4.153               -6.123              
O              1.211               3.989               -6.5                
C              0.645               3.529               -3.78               
O              0.109               2.226               -3.645              
C              0.868               4.086               -2.391              
H              -2.132              3.228               -4.651              
H              -0.086              5.37                -4.445              
H              1.564               3.454               -4.235              
H              1.641               4.727               -2.397              
H              0.046               4.571               -2.078              
H              1.069               3.341               -1.749              
H              0.806               1.586               -3.297              
N              -0.99               4.118               -6.954              
C              -0.822              3.879               -8.386              
C              -2.111              3.334               -8.982              
H              -1.912              4.272               -6.504              
H              -0.108              3.177               -8.515              
H              -2.152              3.56                -9.955              
H              -2.137              2.341               -8.871              
H              -2.895              3.741               -8.514              
C              -15.548             3.509               -5.208              
O              -16.525             3.759               -4.502              
N              -15.671             3.235               -6.519              
C              -16.968             3.216               -7.202              
C              -17.876             2.12                -6.658              
O              -17.458             1.334               -5.81               
C              -16.604             2.937               -8.665              
C              -15.253             2.312               -8.618              
C              -14.559             2.917               -7.432              
H              -17.418             4.118               -7.137              
H              -17.276             2.315               -9.082              
H              -16.589             3.792               -9.194              
H              -15.329             1.312               -8.517              
H              -14.745             2.504               -9.467              
H              -13.929             2.269               -7.004              
H              -14.061             3.749               -7.681              
N              -19.134             2.051               -7.134              
C              -20.09              1.035               -6.681              
C              -19.602             -0.379              -6.98               
O              -20.159             -1.077              -7.827              
C              -21.364             1.346               -7.478              
C              -20.91              2.172               -8.633              
C              -19.723             2.949               -8.142              
H              -20.285             1.145               -5.695              
H              -21.799             0.495               -7.791              
H              -22.021             1.85                -6.909              
H              -20.657             1.583               -9.411              
H              -21.645             2.792               -8.934              
H              -19.07              3.126               -8.877              
H              -19.998             3.815               -7.723              
N              -18.552             -0.79               -6.277              
C              -17.992             -2.112              -6.474              
C              -17.065             -2.519              -5.346              
O              -17.09              -3.666              -4.899              
H              -18.183             -0.1                -5.598              
H              -18.744             -2.789              -6.549              
H              -17.481             -2.135              -7.35               
N              -16.243             -1.579              -4.879              
C              -15.311             -1.858              -3.794              
C              -15.661             -1.044              -2.559              
O              -15.971             0.144               -2.644              
C              -13.877             -1.554              -4.223              
C              -13.591             -1.871              -5.683              
C              -13.401             -0.625              -6.525              
O              -14.414             0.023               -6.863              
O              -12.24              -0.296              -6.846              
H              -16.325             -0.658              -5.345              
H              -15.337             -2.839              -3.569              
H              -13.722             -0.592              -4.092              
H              -13.275             -2.106              -3.675              
H              -12.759             -2.391              -5.728              
H              -14.359             -2.363              -6.049              
N              -15.607             -1.701              -1.413              
C              -15.913             -1.062              -0.142              
C              -14.742             -1.187              0.827               
O              -14.655             -0.45               1.809               
C              -17.162             -1.681              0.469               
C              -18.311             -0.706              0.568               
H              -15.33              -2.703              -1.496              
H              -16.04              -0.08               -0.323              
H              -17.445             -2.451              -0.101              
H              -16.938             -2.005              1.387               
O              -18.198             0.456               0.179               
N              -19.429             -1.181              1.094               
H              -19.482             -2.13               1.405               
H              -20.233             -0.587              1.184               
N              -13.848             -2.133              0.552               
C              -12.696             -2.363              1.401               
C              -11.419             -1.835              0.757               
O              -11.363             -1.621              -0.452              
C              -12.554             -3.855              1.673               
C              -13.826             -4.55               2.16                
C              -13.793             -6.027              1.804               
C              -13.992             -4.366              3.66                
H              -14.048             -2.68               -0.31               
H              -12.833             -1.877              2.274               
H              -12.28              -4.298              0.828               
H              -11.863             -3.977              2.374               
H              -14.617             -4.121              1.726               
H              -13.001             -6.459              2.237               
H              -14.63              -6.469              2.128               
H              -13.726             -6.131              0.811               
H              -14.054             -3.39               3.873               
H              -14.828             -4.826              3.964               
H              -13.204             -4.761              4.135               
N              -10.394             -1.643              1.577               
C              -9.106              -1.156              1.099               
C              -8.054              -2.249              1.238               
O              -8.302              -3.27               1.877               
C              -8.678              0.082               1.89                
S              -10.028             1.257               2.241               
H              -10.586             -1.867              2.575               
H              -9.194              -0.93               0.126               
H              -8.298              -0.219              2.761               
H              -7.981              0.564               1.364               
N              -6.88               -2.04               0.649               
C              -5.815              -3.032              0.739               
C              -4.437              -2.386              0.804               
O              -4.188              -1.344              0.192               
C              -5.889              -4.027              -0.43               
C              -5.289              -3.537              -1.74               
C              -3.918              -3.312              -1.877              
C              -6.097              -3.32               -2.849              
C              -3.381              -2.886              -3.076              
C              -5.565              -2.891              -4.05               
C              -4.207              -2.676              -4.158              
O              -3.675              -2.252              -5.354              
H              -6.794              -1.146              0.142               
H              -5.951              -3.566              1.587               
H              -5.405              -4.861              -0.161              
H              -6.853              -4.243              -0.594              
H              -3.316              -3.462              -1.09               
H              -7.082              -3.479              -2.775              
H              -2.392              -2.731              -3.158              
H              -6.163              -2.736              -4.839              
H              -3.399              -1.296              -5.269              
N              -3.545              -3.037              1.543               
C              -2.173              -2.575              1.704               
C              -1.217              -3.753              1.552               
O              -1.171              -4.637              2.408               
C              -1.991              -1.922              3.077               
C              -1.164              -0.648              3.044               
C              -0.448              -0.416              4.365               
N              -1.351              -0.542              5.506               
C              -1.042              -0.159              6.743               
N              0.143               0.379               7.002               
N              -1.922              -0.312              7.723               
H              -3.912              -3.905              1.996               
H              -1.969              -1.903              0.99                
H              -2.891              -1.698              3.436               
H              -1.533              -2.573              3.673               
H              -0.477              -0.715              2.326               
H              -1.761              0.132               2.874               
H              0.28                -1.091              4.445               
H              -0.062              0.503               4.35                
H              -2.259              -0.941              5.349               
H              0.811               0.524               6.277               
H              0.372               0.647               7.945               
H              -2.826              -0.699              7.523               
H              -1.69               -0.044              8.656               
N              -0.466              -3.775              0.457               
C              0.47                -4.869              0.206               
C              1.84                -4.574              0.795               
O              2.278               -3.424              0.834               
C              0.601               -5.133              -1.293              
C              1.358               -6.409              -1.62               
C              2.073               -6.305              -2.957              
C              2.12                -7.646              -3.669              
N              1.074               -7.753              -4.723              
H              -0.597              -2.974              -0.184              
H              0.107               -5.71               0.631               
H              -0.315              -5.203              -1.679              
H              1.086               -4.365              -1.704              
H              2.035               -6.58               -0.904              
H              0.713               -7.173              -1.656              
H              1.586               -5.656              -3.533              
H              3.006               -5.995              -2.801              
H              3.024               -7.76               -4.09               
H              1.984               -8.378              -2.995              
H              1.493               -8.066              -5.575              
H              0.376               -8.407              -4.432              
H              0.654               -6.857              -4.866              
N              2.514               -5.624              1.25                
C              3.838               -5.478              1.835               
C              4.712               -6.698              1.562               
O              4.293               -7.839              1.756               
C              3.733               -5.245              3.338               
C              3.203               -3.868              3.704               
S              1.496               -3.91               4.287               
C              1.727               -3.596              6.035               
H              2.025               -6.533              1.153               
H              4.284               -4.677              1.412               
H              3.119               -5.938              3.736               
H              4.645               -5.355              3.752               
H              3.819               -3.461              4.416               
H              3.291               -3.256              2.885               
H              0.932               -3.93               6.544               
H              2.549               -4.069              6.356               
H              1.83                -2.612              6.189               
N              5.936               -6.435              1.124               
C              6.909               -7.5                0.831               
C              8.281               -6.889              0.575               
O              8.429               -6.034              -0.296              
C              6.467               -8.345              -0.369              
C              6.407               -7.584              -1.652              
C              6.035               -6.29               -1.804              
C              6.73                -8.069              -2.962              
N              6.096               -5.931              -3.129              
C              6.523               -7.005              -3.859              
C              7.173               -9.296              -3.465              
C              6.743               -7.127              -5.227              
C              7.391               -9.418              -4.825              
C              7.177               -8.338              -5.692              
H              6.153               -5.425              1.005               
H              6.978               -8.077              1.646               
H              7.115               -9.088              -0.492              
H              5.557               -8.702              -0.19               
H              5.755               -5.677              -1.064              
H              5.866               -5.032              -3.499              
H              7.331               -10.072             -2.858              
H              6.584               -6.345              -5.839              
H              7.705               -10.289             -5.191              
H              7.349               -8.466              -6.669              
N              9.274               -7.282              1.369               
C              10.604              -6.703              1.243               
C              11.187              -6.802              -0.152              
O              11.571              -7.88               -0.607              
C              11.613              -7.312              2.222               
S              11.249              -7.024              3.984               
H              9.024               -8.009              2.058               
H              10.542              -5.716              1.49                
H              11.639              -8.3                2.069               
H              12.513              -6.921              2.025               
N              11.349              -5.647              -0.783              
C              12.001              -5.589              -2.073              
C              13.466              -5.81               -1.781              
O              13.931              -5.402              -0.701              
C              11.781              -4.247              -2.778              
C              11.886              -3.067              -1.837              
O              12.841              -3.033              -1.037              
O              11.011              -2.18               -1.898              
H              10.978              -4.819              -0.283              
H              11.686              -6.362              -2.602              
H              12.473              -4.157              -3.486              
H              10.873              -4.258              -3.18               
N              14.164              -6.487              -2.696              
C              15.574              -6.859              -2.515              
C              16.401              -5.811              -1.775              
O              17.435              -5.359              -2.263              
C              16.204              -7.156              -3.868              
H              13.621              -6.731              -3.556              
H              15.609              -7.729              -1.987              
H              15.926              -6.457              -4.527              
H              17.2                -7.153              -3.781              
H              15.901              -8.053              -4.188              
N              15.944              -5.473              -0.571              
C              16.617              -4.538              0.299               
C              15.933              -4.5                1.673               
O              15.953              -3.47               2.344               
C              16.67               -3.144              -0.319              
C              18.076              -2.675              -0.624              
C              19.059              -3.576              -1.008              
C              18.414              -1.335              -0.53               
C              20.342              -3.15               -1.292              
C              19.696              -0.903              -0.812              
C              20.661              -1.811              -1.194              
H              15.044              -5.953              -0.312              
H              17.546              -4.885              0.457               
H              16.17               -3.165              -1.169              
H              16.274              -2.508              0.323               
H              18.837              -4.547              -1.082              
H              17.716              -0.669              -0.254              
H              21.041              -3.824              -1.569              
H              19.921              0.084               -0.734              
H              21.592              -1.504              -1.401              
N              15.316              -5.625              2.086               
C              14.623              -5.704              3.38                
C              15.415              -5.001              4.488               
O              14.838              -4.537              5.47                
C              14.339              -7.165              3.744               
S              12.999              -7.398              4.969               
H              15.374              -6.416              1.419               
H              13.735              -5.238              3.288               
H              14.081              -7.651              2.913               
H              15.172              -7.561              4.124               
N              16.732              -4.897              4.31                
H              17.09               -5.333              3.44                
H              -0.516081           4.78886             -8.9131             
H              -14.5659            3.49853             -4.7934             
H              17.3211             -4.42447            4.98376             
