403
2.xyz
C              -9.988              -9.849              0.904               
C              -9.594              -11.204             0.321               
O              -9.804              -12.242             0.949               
C              -9.79               -9.856              2.415               
H              -9.392              -9.149              0.495               
H              -10.331             -9.117              2.808               
H              -10.105             -10.733             2.771               
N              -9.016              -11.215             -0.894              
C              -8.595              -12.454             -1.557              
C              -7.423              -13.123             -0.848              
O              -6.938              -12.632             0.171               
C              -8.181              -11.99              -2.955              
C              -7.819              -10.556             -2.788              
C              -8.727              -10.024             -1.715              
H              -9.375              -13.095             -1.64               
H              -7.397              -12.524             -3.286              
H              -8.941              -12.098             -3.603              
H              -6.853              -10.463             -2.517              
H              -7.953              -10.054             -3.652              
H              -8.274              -9.322              -1.165              
H              -9.572              -9.651              -2.1                
N              -6.972              -14.248             -1.395              
C              -5.856              -14.987             -0.816              
C              -4.604              -14.119             -0.746              
O              -4.643              -12.93              -1.062              
C              -5.572              -16.247             -1.636              
O              -6.722              -17.071             -1.721              
H              -7.474              -14.548             -2.253              
H              -6.106              -15.245             0.124               
H              -5.297              -15.977             -2.554              
H              -4.839              -16.758             -1.195              
H              -7.52               -16.564             -1.399              
N              -3.495              -14.721             -0.33               
C              -2.231              -14.003             -0.219              
C              -1.074              -14.963             0.033               
O              -1.179              -15.876             0.852               
C              -2.306              -12.975             0.899               
C              -2.58               -13.608             2.235               
C              -2.66               -12.576             3.348               
C              -2.481              -13.213             4.717               
N              -3.622              -12.908             5.625               
H              -3.605              -15.727             -0.096              
H              -2.059              -13.51              -1.081              
H              -1.436              -12.499             0.944               
H              -3.041              -12.34              0.689               
H              -3.452              -14.105             2.197               
H              -1.847              -14.258             2.454               
H              -1.939              -11.902             3.215               
H              -3.552              -12.136             3.317               
H              -2.406              -14.208             4.606               
H              -1.633              -12.868             5.128               
H              -4.093              -12.089             5.3                 
H              -4.256              -13.68              5.63                
H              -3.276              -12.752             6.55                
N              0.03                -14.751             -0.677              
C              1.207               -15.598             -0.529              
C              2.029               -15.18              0.687               
O              2.005               -14.018             1.094               
C              2.071               -15.531             -1.79               
C              1.29                -15.757             -3.075              
C              1.897               -14.991             -4.238              
C              1.068               -15.15              -5.503              
N              1.277               -16.48              -6.14               
H              -0.019              -13.947             -1.331              
H              0.91                -16.552             -0.404              
H              2.491               -14.629             -1.832              
H              2.775               -16.233             -1.722              
H              1.296               -16.734             -3.292              
H              0.347               -15.451             -2.942              
H              1.935               -14.025             -4.003              
H              2.812               -15.34              -4.413              
H              0.097               -15.045             -5.271              
H              1.325               -14.43              -6.153              
H              1.912               -17.017             -5.585              
H              0.401               -16.958             -6.204              
H              1.657               -16.352             -7.056              
N              2.772               -16.127             1.286               
C              3.605               -15.853             2.461               
C              4.468               -14.608             2.285               
O              4.778               -13.913             3.252               
C              4.482               -17.101             2.568               
C              3.667               -18.187             1.955               
C              2.859               -17.538             0.863               
H              3.032               -15.775             3.293               
H              5.344               -16.971             2.069               
H              4.692               -17.305             3.528               
H              4.263               -18.908             1.578               
H              3.063               -18.608             2.644               
H              3.317               -17.61              -0.024              
H              1.944               -17.941             0.795               
N              4.851               -14.331             1.043               
C              5.676               -13.168             0.739               
C              4.813               -11.961             0.393               
O              4.65                -11.048             1.203               
C              6.624               -13.48              -0.408              
C              7.793               -14.355             -0.013              
C              8.493               -14.125             1.165               
C              8.194               -15.413             -0.818              
C              9.56                -14.924             1.529               
C              9.26                -16.218             -0.461              
C              9.939               -15.969             0.713               
O              11.001              -16.767             1.072               
H              4.518               -15.001             0.324               
H              6.218               -12.941             1.558               
H              6.112               -13.951             -1.123              
H              6.987               -12.621             -0.761              
H              8.22                -13.366             1.761               
H              7.702               -15.596             -1.669              
H              10.056              -14.745             2.383               
H              9.538               -16.977             -1.052              
H              11.644              -16.231             1.616               
N              4.259               -11.965             -0.814              
C              3.408               -10.873             -1.27               
C              2.051               -10.92              -0.575              
O              1.084               -11.456             -1.116              
C              3.218               -10.944             -2.786              
C              4.36                -10.321             -3.572              
C              4.077               -10.259             -5.061              
O              3.039               -9.681              -5.444              
O              4.894               -10.79              -5.843              
H              4.481               -12.798             -1.393              
H              3.853               -9.992              -1.075              
H              3.165               -11.892             -3.037              
H              2.398               -10.451             -3.009              
H              4.486               -9.4                -3.255              
H              5.162               -10.874             -3.445              
N              1.987               -10.358             0.628               
C              0.749               -10.341             1.396               
C              0.058               -8.986              1.291               
O              0.703               -7.962              1.064               
C              1.031               -10.666             2.863               
C              1.023               -12.155             3.169               
C              0.851               -12.444             4.648               
O              0.35                -11.558             5.372               
O              1.216               -13.557             5.081               
H              2.876               -9.942              0.964               
H              0.129               -11.06              1.057               
H              1.925               -10.322             3.08                
H              0.327               -10.246             3.404               
H              0.265               -12.563             2.696               
H              1.886               -12.533             2.891               
N              -1.258              -8.992              1.461               
C              -2.047              -7.77               1.389               
C              -3.066              -7.716              2.521               
O              -3.884              -8.624              2.673               
C              -2.795              -7.644              0.045               
C              -2.139              -6.599              -0.84               
C              -2.87               -8.985              -0.671              
H              -1.669              -9.929              1.647               
H              -1.424              -6.986              1.495               
H              -3.717              -7.324              0.243               
H              -1.248              -6.933              -1.15               
H              -2.72               -6.419              -1.634              
H              -2.013              -5.752              -0.323              
H              -3.597              -9.537              -0.263              
H              -3.067              -8.832              -1.639              
H              -1.995              -9.459              -0.576              
N              -3.02               -6.648              3.307               
C              -3.948              -6.484              4.415               
C              -5.165              -5.678              3.981               
O              -5.054              -4.504              3.628               
C              -3.264              -5.795              5.59                
O              -2.368              -4.796              5.136               
C              -2.486              -6.746              6.474               
H              -2.283              -5.959              3.067               
H              -4.261              -7.394              4.71                
H              -3.98               -5.343              6.173               
H              -1.967              -6.23               7.161               
H              -3.115              -7.372              6.944               
H              -1.845              -7.285              5.92                
H              -2.097              -4.967              4.18                
N              -6.325              -6.319              4.006               
C              -7.566              -5.675              3.613               
C              -8.369              -5.256              4.842               
O              -8.46               -6.002              5.817               
H              -6.269              -7.308              4.327               
H              -7.344              -4.845              3.09                
N              -8.951              -4.062              4.79                
C              -9.746              -3.552              5.903               
C              -11.098             -3.037              5.415               
O              -11.286             -2.796              4.223               
C              -8.993              -2.438              6.636               
S              -7.981              -1.376              5.554               
H              -8.794              -3.537              3.91                
H              -9.914              -4.308              6.544               
H              -9.661              -1.86               7.097               
H              -8.387              -2.86               7.307               
N              -12.038             -2.878              6.342               
C              -13.375             -2.401              6                   
C              -13.657             -1.039              6.63                
O              -14.643             -0.869              7.348               
C              -14.429             -3.413              6.452               
O              -14.669             -3.312              7.845               
H              -11.745             -3.117              7.308               
H              -13.422             -2.293              4.999               
H              -15.277             -3.233              5.963               
H              -14.102             -4.331              6.245               
H              -14.168             -4.033              8.323               
N              -12.792             -0.071              6.353               
C              -12.956             1.275               6.888               
C              -12.29              2.302               5.981               
O              -11.461             1.955               5.141               
C              -12.366             1.362               8.297               
O              -12.897             0.344               9.126               
C              -12.629             2.689               8.974               
H              -12.006             -0.35               5.736               
H              -13.94              1.484               6.934               
H              -11.349             1.232               8.237               
H              -12.629             3.428               8.295               
H              -13.522             2.67                9.434               
H              -11.916             2.875               9.656               
H              -13.544             -0.234              8.613               
N              -12.652             3.568               6.153               
C              -12.076             4.635               5.345               
C              -10.629             4.881               5.741               
O              -10.243             4.648               6.887               
C              -12.881             5.924               5.498               
C              -12.71              6.857               4.316               
O              -11.578             7.335               4.096               
O              -13.71              7.111               3.611               
H              -13.361             3.726               6.892               
H              -12.072             4.318               4.391               
H              -13.84              5.68                5.577               
H              -12.569             6.387               6.318               
N              -9.835              5.356               4.785               
C              -8.413              5.642               5.019               
C              -7.804              4.635               5.997               
O              -7.044              5.001               6.894               
C              -8.237              7.068               5.556               
C              -9.387              7.546               6.43                
C              -9.304              9.041               6.692               
C              -8.016              9.413               7.408               
N              -8.206              10.57               8.327               
H              -10.299             5.507               3.867               
H              -7.922              5.578               4.143               
H              -7.399              7.095               6.096               
H              -8.156              7.685               4.776               
H              -10.252             7.346               5.969               
H              -9.356              7.062               7.304               
H              -9.334              9.523               5.821               
H              -10.073             9.312               7.262               
H              -7.697              8.622               7.937               
H              -7.319              9.647               6.725               
H              -8.329              11.403              7.789               
H              -9.015              10.414              8.893               
H              -7.401              10.664              8.911               
N              -8.173              3.371               5.827               
C              -7.706              2.298               6.693               
C              -6.426              1.642               6.179               
O              -5.795              0.864               6.894               
C              -8.807              1.247               6.831               
S              -9.117              0.287               5.314               
H              -8.823              3.215               5.024               
H              -7.509              2.69                7.606               
H              -8.544              0.61                7.55                
H              -9.654              1.711               7.079               
N              -6.052              1.932               4.936               
C              -4.865              1.337               4.347               
C              -3.763              2.366               4.083               
O              -3.31               2.521               2.948               
C              -5.251              0.644               3.051               
C              -5.835              1.603               2.04                
H              -6.668              2.603               4.44                
H              -4.492              0.678               5.019               
H              -4.436              0.226               2.659               
H              -5.93               -0.056              3.255               
O              -6.821              2.289               2.309               
N              -5.222              1.654               0.87                
H              -4.425              1.078               0.686               
H              -5.556              2.275               0.154               
N              -3.305              3.082               5.127               
C              -2.249              4.085               4.994               
C              -0.858              3.464               5.056               
O              -0.686              2.354               5.559               
C              -2.487              4.973               6.209               
C              -2.984              4.032               7.252               
C              -3.774              2.972               6.523               
H              -2.365              4.615               4.14                
H              -1.635              5.414               6.5                 
H              -3.169              5.678               6.007               
H              -2.213              3.618               7.754               
H              -3.568              4.515               7.917               
H              -3.582              2.06                6.886               
H              -4.759              3.148               6.577               
N              0.135               4.187               4.549               
C              1.514               3.7                 4.559               
C              1.964               3.388               5.987               
O              1.739               4.182               6.9                 
C              2.458               4.734               3.94                
C              3.716               4.139               3.383               
H              -0.145              5.103               4.155               
H              1.556               2.851               4.024               
H              1.978               5.211               3.197               
H              2.711               5.406               4.643               
N              4.933               4.216               4.027               
C              3.944               3.458               2.235               
C              5.853               3.609               3.3                 
N              5.279               3.141               2.207               
H              5.09                4.662               4.908               
H              3.268               3.23                1.538               
H              6.817               3.52                3.535               
N              2.612               2.228               6.203               
C              3.091               1.836               7.533               
C              4.002               2.894               8.145               
O              4.111               3.005               9.366               
C              3.874               0.546               7.272               
C              3.327               0.016               5.992               
C              2.933               1.218               5.18                
H              2.313               1.636               8.146               
H              4.857               0.741               7.192               
H              3.737               -0.108              8.022               
H              4.023               -0.53               5.508               
H              2.529               -0.575              6.166               
H              3.685               1.532               4.601               
H              2.132               1.029               4.609               
N              4.655               3.668               7.285               
C              5.562               4.719               7.731               
C              5.112               6.086               7.222               
O              5.925               6.998               7.07                
C              6.984               4.429               7.247               
C              7.874               3.808               8.311               
C              8.602               4.871               9.117               
C              9.761               4.28                9.904               
N              11.073              4.577               9.267               
H              4.466               3.462               6.283               
H              5.57                4.738               8.739               
H              6.929               3.8                 6.477               
H              7.395               5.289               6.955               
H              7.31                3.262               8.931               
H              8.549               3.218               7.869               
H              8.96                5.559               8.493               
H              7.963               5.285               9.757               
H              9.752               4.662               10.832              
H              9.641               3.285               9.962               
H              11.315              3.834               8.643               
H              11.007              5.434               8.757               
H              11.774              4.661               9.975               
N              3.816               6.226               6.958               
C              3.275               7.487               6.465               
C              3.352               8.568               7.54                
O              3.104               8.305               8.717               
C              1.826               7.306               6.005               
C              1.609               7.626               4.534               
C              1.076               9.028               4.315               
H              3.241               5.382               7.129               
H              3.84                7.787               5.689               
H              1.556               6.356               6.16                
H              1.24                7.911               6.545               
H              2.482               7.538               4.055               
H              0.953               6.972               4.157               
O              1.693               10.011              4.728               
N              -0.076              9.128               3.663               
H              -0.503              10.035              3.491               
H              -0.531              8.277               3.334               
N              3.699               9.782               7.127               
C              3.81                10.902              8.055               
C              2.439               11.292              8.605               
O              1.493               11.494              7.842               
C              4.454               12.103              7.361               
C              5.257               12.99               8.3                 
C              4.419               14.139              8.838               
N              5.036               15.437              8.574               
C              4.951               16.076              7.409               
N              4.278               15.541              6.397               
N              5.542               17.253              7.254               
H              3.88                9.862               6.108               
H              4.398               10.63               8.825               
H              5.067               11.764              6.656               
H              3.733               12.654              6.958               
H              5.578               12.45               9.074               
H              6.034               13.376              7.809               
H              3.526               14.104              8.398               
H              4.321               14.015              9.822               
H              5.555               15.873              9.315               
H              3.811               14.667              6.497               
H              4.238               16.025              5.516               
H              6.035               17.666              8.024               
H              5.497               17.728              6.378               
N              2.309               11.407              9.939               
C              1.042               11.776              10.578              
C              0.715               13.255              10.401              
O              1.578               14.052              10.033              
C              1.285               11.454              12.051              
C              2.755               11.609              12.231              
C              3.382               11.186              10.93               
H              0.287               11.199              10.229              
H              0.78                12.091              12.641              
H              0.992               10.518              12.262              
H              2.988               12.567              12.444              
H              3.082               11.031              12.99               
H              4.182               11.745              10.709              
H              3.648               10.22               10.947              
N              -0.537              13.615              10.667              
C              -0.955              14.998              10.532              
C              -2.346              15.13               9.945               
O              -3.265              15.545              10.682              
O              -2.518              14.818              8.748               
H              -1.16               12.848              10.967              
H              -0.933              15.447              11.442              
H              -0.295              15.493              9.941               
H              -10.9947            -9.61244            0.664524            
H              -8.76788            -9.72062            2.72772             
H              -8.1545             -6.33741            2.99845             
