379
6.xyz
C              23.824              19.951              21.859              
C              22.714              18.985              22.272              
O              21.554              19.166              21.886              
C              23.852              21.129              22.813              
C              25.099              21.923              22.672              
H              24.656              19.42               21.791              
H              23.067              21.711              22.615              
H              23.788              20.778              23.745              
O              26.167              21.378              22.355              
N              24.993              23.215              22.897              
H              24.115              23.622              23.154              
H              25.8                23.811              22.813              
N              23.061              17.981              23.064              
C              22.089              16.981              23.505              
C              20.975              17.541              24.399              
O              21.098              18.642              24.944              
C              22.812              15.861              24.254              
C              23.295              16.281              25.632              
C              23.757              15.122              26.445              
N              24.362              15.583              27.692              
C              23.748              15.575              28.875              
N              22.504              15.132              28.988              
N              24.381              16.016              29.949              
H              24.061              17.964              23.34               
H              21.657              16.564              22.682              
H              22.182              15.103              24.364              
H              23.601              15.588              23.72               
H              24.054              16.928              25.527              
H              22.543              16.736              26.115              
H              22.977              14.545              26.659              
H              24.435              14.614              25.926              
H              25.307              15.931              27.657              
H              22.013              14.779              28.194              
H              22.047              15.15               29.884              
H              25.329              16.337              29.874              
H              23.921              16.03               30.836              
N              19.885              16.781              24.524              
C              18.775              17.153              25.405              
C              19.359              16.952              26.811              
O              19.659              15.831              27.214              
C              17.578              16.218              25.179              
C              16.369              16.572              26.05               
O              16.46               16.463              27.288              
O              15.317              16.946              25.486              
H              19.892              15.915              23.95               
H              18.621              18.113              25.295              
H              17.309              16.286              24.226              
H              17.863              15.293              25.397              
N              19.544              18.046              27.536              
C              20.134              17.989              28.868              
C              19.475              16.982              29.782              
O              20.144              16.221              30.475              
C              20.093              19.374              29.53               
C              20.79               20.486              28.731              
C              22.229              20.14               28.369              
H              19.239              18.929              27.083              
H              21.111              17.722              28.76               
H              19.136              19.643              29.657              
H              20.539              19.316              30.427              
H              20.277              20.638              27.889              
H              20.79               21.318              29.282              
O              22.95               19.553              29.175              
N              22.649              20.498              27.143              
H              23.591              20.311              26.847              
H              21.986              20.962              26.525              
N              18.154              16.96               29.756              
C              17.385              16.086              30.622              
C              17.256              14.629              30.225              
O              17.313              13.751              31.087              
C              15.976              16.666              30.788              
C              15.753              17.424              32.084              
C              15.138              16.52               33.153              
N              13.835              16.002              32.735              
C              13.614              14.758              32.308              
N              12.387              14.388              31.95               
N              14.616              13.881              32.242              
H              17.72               17.614              29.071              
H              17.803              16.125              31.572              
H              15.807              17.292              30.029              
H              15.324              15.911              30.754              
H              16.622              17.76               32.43               
H              15.127              18.181              31.927              
H              15.761              15.762              33.308              
H              15.03               17.058              33.982              
H              13.046              16.63               32.772              
H              11.627              15.029              31.975              
H              12.225              13.44               31.647              
H              15.54               14.177              32.499              
H              14.449              12.949              31.941              
N              17.09               14.368              28.93               
C              16.857              13.009              28.454              
C              17.909              12.295              27.62               
O              17.897              11.065              27.526              
C              15.531              12.992              27.71               
C              14.357              13.303              28.623              
C              13.047              13.393              27.855              
N              13.067              14.409              26.795              
C              12.261              14.396              25.732              
N              11.367              13.42               25.585              
N              12.345              15.35               24.816              
H              17.14               15.194              28.307              
H              16.652              12.411              29.29               
H              15.559              13.68               27                  
H              15.394              12.09               27.33               
H              14.267              12.582              29.307              
H              14.511              14.179              29.076              
H              12.864              12.499              27.446              
H              12.32               13.616              28.506              
H              13.729              15.159              26.876              
H              11.273              12.703              26.268              
H              10.777              13.409              24.769              
H              13.009              16.094              24.94               
H              11.757              15.333              24.012              
N              18.803              13.049              26.995              
C              19.85               12.428              26.204              
C              20.999              12.04               27.118              
O              21.341              12.768              28.056              
C              20.368              13.389              25.145              
C              19.569              13.334              23.867              
O              19.056              12.246              23.511              
O              19.464              14.392              23.219              
H              18.692              14.064              27.116              
H              19.476              11.58               25.824              
H              20.319              14.312              25.515              
H              21.312              13.149              24.945              
N              21.595              10.869              26.877              
C              22.717              10.429              27.707              
C              23.904              11.392              27.63               
O              24.249              11.902              26.556              
C              23.062              9.046               27.153              
C              22.449              9.002               25.791              
C              21.221              9.86                25.874              
H              22.425              10.304              28.667              
H              24.06               8.923               27.101              
H              22.683              8.323               27.741              
H              23.092              9.359               25.104              
H              22.211              8.056               25.543              
H              21.017              10.295              24.998              
H              20.426              9.336               26.181              
N              24.548              11.641              28.781              
C              25.703              12.538              28.889              
C              26.915              12.083              28.086              
O              27.813              12.878              27.808              
C              25.985              12.587              30.386              
C              25.349              11.356              30.946              
C              24.17               11.053              30.077              
H              25.438              13.488              28.629              
H              26.976              12.589              30.563              
H              25.587              13.414              30.798              
H              26.007              10.589              30.944              
H              25.063              11.514              31.902              
H              24.022              10.068              29.984              
H              23.334              11.481              30.425              
N              26.941              10.805              27.716              
C              28.048              10.259              26.926              
C              28.31               11.075              25.656              
O              29.461              11.281              25.267              
C              27.756              8.807               26.53               
C              28.783              8.192               25.576              
C              28.366              6.82                25.061              
H              26.13               10.241              28.027              
H              28.883              10.3                27.493              
H              27.732              8.245               27.36               
H              26.859              8.769               26.082              
H              28.897              8.803               24.794              
H              29.652              8.1                 26.06               
O              27.224              6.387               25.256              
N              29.292              6.127               24.399              
H              29.089              5.202               24.04               
H              30.209              6.547               24.26               
N              27.237              11.528              25.009              
C              27.359              12.3                23.782              
C              26.863              13.74               23.886              
O              25.685              14.016              23.664              
C              26.608              11.6                22.649              
C              27.207              10.277              22.21               
C              28.46               10.22               21.611              
C              26.494              9.086               22.353              
C              28.994              9.013               21.154              
C              27.025              7.87                21.897              
C              28.268              7.844               21.297              
O              28.771              6.658               20.811              
H              26.329              11.286              25.449              
H              28.347              12.329              23.522              
H              25.67               11.43               22.952              
H              26.595              12.211              21.856              
H              28.997              11.06               21.501              
H              25.598              9.094               22.784              
H              29.899              8.999               20.727              
H              26.497              7.028               22.01               
H              29.551              6.852               20.219              
N              27.755              14.679              24.229              
C              27.348              16.088              24.338              
C              26.73               16.675              23.059              
O              25.85               17.541              23.131              
C              28.643              16.816              24.714              
C              29.751              15.856              24.415              
C              29.17               14.486              24.583              
H              26.711              16.213              25.126              
H              28.744              17.66               24.173              
H              28.638              17.066              25.69               
H              30.089              15.993              23.475              
H              30.521              16.003              25.049              
H              29.598              13.825              23.966              
H              29.255              14.162              25.527              
N              27.207              16.216              21.901              
C              26.723              16.691              20.595              
C              26.114              15.512              19.843              
O              26.729              14.462              19.713              
C              27.88               17.299              19.756              
C              27.373              17.709              18.377              
C              28.49               18.482              20.503              
H              27.952              15.492              21.997              
H              26.004              17.362              20.758              
H              28.555              16.585              19.619              
H              26.385              17.567              18.331              
H              27.579              18.674              18.221              
H              27.823              17.154              17.679              
H              27.858              19.255              20.465              
H              28.65               18.222              21.454              
H              29.356              18.731              20.071              
N              24.905              15.692              19.338              
C              24.212              14.596              18.665              
C              23.515              14.995              17.37               
O              23.139              16.141              17.188              
C              23.132              13.972              19.607              
C              23.791              13.232              20.757              
C              22.215              15.069              20.155              
H              24.508              16.636              19.455              
H              24.904              13.882              18.439              
H              22.629              13.304              19.071              
H              24.299              12.445              20.404              
H              24.421              13.845              21.234              
H              23.091              12.914              21.397              
H              22.165              15.813              19.491              
H              21.305              14.687              20.307              
H              22.59               15.407              21.016              
N              23.358              14.039              16.439              
C              22.68               14.36               15.177              
C              21.214              14.534              15.51               
O              20.681              13.795              16.335              
C              22.921              13.126              14.308              
C              23.161              12.01               15.292              
C              23.831              12.644              16.488              
H              23.059              15.176              14.768              
H              22.12               12.928              13.739              
H              23.72               13.254              13.718              
H              22.289              11.584              15.554              
H              23.751              11.306              14.882              
H              23.546              12.206              17.339              
H              24.827              12.607              16.409              
N              20.557              15.507              14.892              
C              19.147              15.73               15.181              
C              18.289              15.736              13.921              
O              17.063              15.692              14.004              
C              18.933              17.067              15.939              
C              19.521              16.974              17.367              
C              19.564              18.206              15.167              
H              21.105              16.062              14.224              
H              18.824              14.974              15.772              
H              17.958              17.204              16.044              
H              19.173              17.734              17.908              
H              19.243              16.109              17.773              
H              20.514              17.021              17.309              
H              20.322              17.856              14.615              
H              18.879              18.623              14.567              
H              19.908              18.894              15.808              
N              18.929              15.749              12.754              
C              18.187              15.793              11.503              
C              19.072              15.36               10.339              
O              20.258              15.678              10.303              
C              17.658              17.233              11.323              
C              17.459              17.663              9.902               
H              19.958              15.726              12.816              
H              17.415              15.152              11.565              
H              16.775              17.313              11.807              
H              18.309              17.87               11.76               
N              16.286              17.439              9.211               
C              18.257              18.37               9.063               
C              16.369              17.986              8.01                
N              17.554              18.559              7.895               
H              19.179              18.692              9.254               
H              15.661              17.968              7.311               
H              17.887              19.052              7.09                
N              18.506              14.6                9.406               
C              19.243              14.169              8.225               
C              18.849              15.177              7.155               
O              17.75               15.116              6.611               
C              18.829              12.76               7.8                 
C              19.527              12.245              6.525               
C              21.026              12.52               6.605               
C              19.286              10.74               6.365               
H              17.517              14.347              9.589               
H              20.205              14.254              8.399               
H              19.06               12.136              8.531               
H              17.858              12.764              7.62                
H              19.143              12.717              5.737               
H              21.408              12.052              7.402               
H              21.47               12.183              5.775               
H              21.179              13.504              6.69                
H              18.304              10.569              6.296               
H              19.743              10.42               5.536               
H              19.656              10.261              7.16                
N              19.738              16.117              6.858               
C              19.418              17.153              5.883               
C              19.416              16.695              4.433               
O              18.499              17.011              3.665               
C              20.372              18.344              6.045               
C              19.777              19.642              5.514               
O              20.105              20.025              4.371               
O              18.98               20.28               6.238               
H              20.637              16.052              7.357               
H              18.471              17.477              6.094               
H              20.564              18.454              7.011               
H              21.201              18.144              5.541               
N              20.435              15.938              4.056               
C              20.531              15.484              2.686               
C              21.463              14.312              2.488               
O              22.314              13.999              3.325               
C              21.005              16.632              1.797               
C              19.957              17.138              0.83                
C              20.592              18.04               -0.208              
N              19.736              18.226              -1.374              
C              18.63               18.966              -1.38               
N              18.232              19.597              -0.276              
N              17.924              19.087              -2.501              
H              21.119              15.714              4.793               
H              19.598              15.214              2.366               
H              21.277              17.389              2.386               
H              21.788              16.313              1.269               
H              19.536              16.371              0.361               
H              19.274              17.664              1.323               
H              20.768              18.926              0.215               
H              21.454              17.625              -0.495              
H              19.997              17.765              -2.23               
H              18.767              19.54               0.562               
H              17.385              20.136              -0.291              
H              18.24               18.636              -3.338              
H              17.084              19.625              -2.509              
N              21.265              13.663              1.355               
C              22.082              12.547              0.935               
C              22.48               13.03               -0.462              
O              21.619              13.335              -1.3                
C              21.267              11.22               0.881               
C              19.844              11.481              0.39                
C              21.198              10.609              2.262               
C              19.153              10.245              -0.15               
H              20.461              14.029              0.785               
H              22.89               12.573              1.469               
H              21.718              10.62               0.231               
H              19.308              11.846              1.149               
H              19.883              12.167              -0.335              
H              20.69               9.748               2.226               
H              22.122              10.431              2.6                 
H              20.735              11.237              2.888               
H              19.1                9.555               0.57                
H              18.232              10.487              -0.452              
H              19.675              9.885               -0.921              
N              23.781              13.147              -0.693              
C              24.269              13.634              -1.972              
C              25.018              12.565              -2.753              
O              24.844              12.542              -3.993              
C              25.175              14.875              -1.771              
C              26.199              14.615              -0.652              
C              24.313              16.085              -1.441              
C              25.822              15.171              0.737               
O              25.749              11.763              -2.124              
H              24.395              12.87               0.092               
H              23.451              13.869              -2.518              
H              25.675              15.027              -2.614              
H              26.334              13.626              -0.567              
H              27.073              15.026              -0.923              
H              24.894              16.891              -1.342              
H              23.656              16.237              -2.177              
H              23.822              15.922              -0.587              
H              24.968              14.752              1.024               
H              26.55               14.946              1.376               
H              25.717              16.157              0.665               
H              23.5751             20.2844             20.8894             
