240
1.xyz
C              15.186              -4.302              7.882               
O              15.029              -3.122              7.573               
N              15.891              -5.153              7.145               
C              16.52               -4.741              5.898               
C              15.467              -4.497              4.815               
O              15.777              -4.002              3.734               
C              17.521              -5.808              5.44                
C              18.787              -5.888              6.284               
C              19.883              -6.689              5.598               
H              15.952              -6.116              7.528               
H              16.997              -3.871              6.06                
H              17.071              -6.704              5.47                
H              17.791              -5.61               4.494               
H              19.123              -4.964              6.446               
H              18.567              -6.328              7.151               
O              20.188              -6.461              4.428               
N              20.473              -7.636              6.32                
H              21.201              -8.218              5.923               
H              20.179              -7.768              7.288               
N              14.224              -4.854              5.115               
C              13.101              -4.659              4.202               
C              12.452              -3.333              4.6                 
O              12.087              -3.165              5.754               
C              12.084              -5.787              4.384               
C              12.011              -6.767              3.239               
C              11.377              -6.159              2.002               
H              14.117              -5.287              6.062               
H              13.459              -4.558              3.286               
H              12.319              -6.295              5.221               
H              11.172              -5.376              4.508               
H              12.936              -7.065              3.005               
H              11.465              -7.556              3.519               
O              10.172              -6.323              1.743               
N              12.183              -5.444              1.231               
H              11.835              -5.013              0.372               
H              13.156              -5.327              1.504               
N              12.283              -2.409              3.66                
C              11.699              -1.093              3.971               
C              10.274              -1.127              4.533               
O              9.943               -0.367              5.441               
H              12.589              -2.683              2.71                
H              12.298              -0.644              4.666               
N              9.425               -1.995              3.987               
C              8.056               -2.086              4.47                
C              8.003               -2.349              5.978               
O              7.251               -1.691              6.7                 
C              7.28                -3.171              3.709               
O              6.974               -2.688              2.397               
C              5.972               -3.507              4.428               
H              9.81                -2.57               3.225               
H              7.59                -1.208              4.29                
H              7.871               -3.995              3.615               
H              5.2                 -3.131              3.914               
H              5.872               -4.501              4.496               
H              5.983               -3.111              5.347               
H              6.187               -3.184              2.016               
N              8.804               -3.292              6.462               
C              8.827               -3.595              7.887               
C              9.54                -2.509              8.685               
O              9.082               -2.119              9.752               
C              9.502               -4.943              8.125               
C              8.81                -6.069              7.39                
H              9.39                -3.775              5.761               
H              7.869               -3.612              8.204               
H              10.443              -4.885              7.806               
H              9.48                -5.138              9.101               
O              7.59                -6.048              7.205               
N              9.58                -7.05               6.952               
H              10.569              -7.026              7.119               
H              9.182               -7.821              6.453               
N              10.662              -2.024              8.167               
C              11.43               -0.985              8.838               
C              10.578              0.27                9.038               
O              10.633              0.905               10.096              
C              12.668              -0.642              8.013               
H              10.939              -2.444              7.257               
H              11.717              -1.321              9.741               
H              12.858              -1.386              7.375               
H              12.504              0.201               7.503               
H              13.449              -0.517              8.623               
N              9.794               0.622               8.018               
C              8.949               1.817               8.082               
C              7.779               1.719               9.054               
O              7.289               2.738               9.526               
C              8.422               2.187               6.691               
C              9.467               2.805               5.757               
S              10.527              4.084               6.469               
C              9.364               5.423               6.614               
H              9.834               -0.007              7.198               
H              9.537               2.597               8.378               
H              8.056               1.357               6.247               
H              7.663               2.846               6.792               
H              10.042              2.027               5.368               
H              8.966               3.169               4.918               
H              8.609               5.156               7.217               
H              9.819               6.231               6.998               
H              8.995               5.654               5.71                
N              7.312               0.514               9.357               
C              6.209               0.403               10.3                
C              6.588               1.027               11.646              
O              5.745               1.559               12.346              
C              5.827               -1.054              10.51               
C              5.254               -1.699              9.281               
C              4.974               -3.175              9.493               
O              3.885               -3.668              9.19                
N              5.962               -3.891              10.017              
H              7.768               -0.275              8.898               
H              5.43                0.921               9.934               
H              6.644               -1.563              10.785              
H              5.145               -1.104              11.243              
H              4.395               -1.248              9.042               
H              5.903               -1.607              8.527               
H              5.844               -4.885              10.202              
H              6.844               -3.43               10.232              
N              7.856               0.96                12.013              
C              8.276               1.527               13.282              
C              8.089               3.044               13.258              
O              7.501               3.629               14.169              
C              9.752               1.197               13.574              
C              10.222              1.988               14.788              
C              9.916               -0.311              13.797              
H              8.489               0.492               11.35               
H              7.688               1.158               14.005              
H              10.29               1.506               12.8                
H              10.022              2.958               14.651              
H              9.745               1.661               15.604              
H              11.207              1.864               14.906              
H              9.489               -0.559              14.664              
H              9.474               -0.8                13.047              
H              10.889              -0.531              13.821              
N              8.585               3.673               12.2                
C              8.478               5.119               12.054              
C              7.013               5.548               11.945              
O              6.573               6.489               12.617              
C              9.238               5.594               10.79               
C              10.748              5.402               10.993              
C              8.88                7.034               10.479              
C              11.603              5.748               9.767               
H              9.045               3.059               11.501              
H              8.828               5.518               12.906              
H              8.954               5.023               10.033              
H              11.042              5.975               11.756              
H              10.915              4.445               11.23               
H              9.343               7.322               9.641               
H              7.892               7.116               10.354              
H              9.167               7.623               11.234              
H              11.455              6.704               9.532               
H              12.561              5.594               9.99                
H              11.329              5.163               9.01                
N              6.277               4.825               11.101              
C              4.868               5.091               10.823              
C              3.976               4.908               12.028              
O              3.059               5.701               12.253              
C              4.376               4.189               9.688               
C              5.035               4.508               8.373               
H              6.804               4.037               10.647              
H              4.803               6.066               10.545              
H              4.579               3.244               9.931               
H              3.392               4.314               9.596               
O              5.646               5.568               8.216               
N              4.921               3.595               7.415               
H              4.411               2.751               7.589               
H              5.342               3.749               6.522               
N              4.24                3.864               12.798              
C              3.464               3.594               13.996              
C              3.722               4.672               15.036              
O              2.874               4.956               15.877              
C              3.84                2.23                14.573              
C              3.128               1.093               13.873              
H              5.03                3.271               12.479              
H              2.494               3.654               13.745              
H              4.822               2.104               14.469              
H              3.591               2.217               15.537              
O              2.006               1.262               13.38               
N              3.773               -0.075              13.819              
H              4.679               -0.156              14.238              
H              3.355               -0.857              13.366              
N              4.899               5.277               14.979              
C              5.24                6.301               15.94               
C              4.699               7.677               15.557              
O              4.21                8.41                16.416              
C              6.761               6.346               16.136              
C              7.274               5.38                17.204              
C              6.642               5.283               18.445              
C              8.416               4.598               16.987              
C              7.13                4.445               19.444              
C              8.918               3.749               17.98               
C              8.271               3.683               19.21               
O              8.766               2.886               20.226              
H              5.521               4.962               14.218              
H              4.836               6.05                16.837              
H              7.197               6.109               15.274              
H              7.016               7.267               16.411              
H              5.82                5.828               18.623              
H              8.881               4.646               16.106              
H              6.662               4.389               20.327              
H              9.729               3.2                 17.807              
H              9.164               3.469               20.931              
N              4.762               8.033               14.281              
C              4.272               9.348               13.874              
C              2.824               9.369               13.367              
O              2.338               10.406              12.91               
C              5.215               9.97                12.837              
C              4.972               9.536               11.41               
C              6.016               10.103              10.451              
H              5.163               7.342               13.64               
H              4.318               9.963               14.688              
H              5.121               10.971              12.883              
H              6.162               9.729               13.084              
H              5.011               8.541               11.359              
H              4.073               9.856               11.119              
O              5.851               10.043              9.226               
N              7.096               10.657              11.006              
H              7.834               11.04               10.43               
H              7.161               10.687              12.021              
N              2.137               8.229               13.468              
C              0.738               8.108               13.049              
C              -0.169              8.868               14.018              
C              0.128               8.574               15.465              
C              0.241               7.087               15.697              
N              -1.022              6.404               15.431              
C              -1.115              5.111               15.149              
N              -0.019              4.371               15.096              
N              -2.297              4.555               14.931              
H              2.68                7.434               13.87               
H              0.47                7.124               13.113              
H              -0.041              9.841               13.861              
H              -1.109              8.607               13.83               
H              0.992               8.998               15.724              
H              -0.609              8.924               16.037              
H              0.942               6.726               15.089              
H              0.5                 6.937               16.647              
H              -1.867              6.945               15.464              
H              0.881               4.753               15.282              
H              -0.094              3.39                14.861              
H              -3.127              5.118               15                  
H              -2.367              3.588               14.701              
H              11.7201             -0.456632           3.0974              
H              14.7539             -4.68589            8.77752             
H              0.539081            8.45772             12.0372             
