286
3.xyz
C              21.351              49.423              40.17               
C              20.466              48.21               40.437              
O              19.314              48.218              39.986              
C              20.765              50.647              40.899              
C              21.567              51.956              40.647              
C              20.759              50.369              42.413              
C              23.027              51.806              40.868              
H              22.27               49.177              40.477              
H              19.834              50.798              40.558              
H              21.388              52.237              39.707              
H              21.199              52.649              41.265              
H              20.327              51.134              42.882              
H              20.248              49.532              42.588              
H              21.698              50.265              42.728              
H              23.4                51.108              40.25               
H              23.494              52.677              40.692              
H              23.206              51.528              41.816              
N              20.984              47.207              41.108              
C              20.189              46.079              41.572              
C              19.781              46.28               43.043              
O              20.533              46.804              43.814              
C              20.987              44.749              41.42               
C              21.164              44.265              39.961              
C              22.217              43.176              39.897              
C              19.928              43.802              39.279              
H              22.014              47.283              41.283              
H              19.351              46.022              41.023              
H              21.887              44.898              41.794              
H              20.495              44.05               41.908              
H              21.445              45.041              39.403              
H              21.936              42.402              40.466              
H              22.326              42.868              38.951              
H              23.091              43.532              40.231              
H              19.249              44.544              39.238              
H              20.134              43.506              38.339              
H              19.521              43.026              39.775              
N              18.579              45.781              43.33               
C              18.083              45.767              44.703              
C              17.724              44.326              45.041              
O              17.021              43.705              44.276              
C              16.936              46.713              44.966              
O              17.37               48.054              44.664              
C              16.382              46.675              46.362              
H              18.049              45.418              42.522              
H              18.813              46.061              45.309              
H              16.16               46.493              44.344              
H              15.408              46.926              46.359              
H              16.474              45.751              46.75               
H              16.877              47.321              46.952              
H              17.992              48.385              45.379              
N              18.232              43.882              46.163              
C              17.949              42.487              46.608              
C              17.325              42.609              47.985              
O              17.966              43.046              48.942              
C              19.245              41.702              46.585              
C              19.105              40.168              46.584              
C              20.299              39.455              46.012              
C              18.907              39.745              48.069              
H              18.816              44.529              46.699              
H              17.293              42.097              45.986              
H              19.746              41.946              45.759              
H              19.774              41.943              47.392              
H              18.276              39.928              46.053              
H              21.119              39.676              46.546              
H              20.151              38.463              46.037              
H              20.445              39.738              45.06               
H              18.085              40.184              48.417              
H              18.813              38.755              48.107              
H              19.702              40.037              48.591              
N              16.074              42.197              48.095              
C              15.303              42.22               49.32               
C              15.13               40.755              49.813              
O              14.792              39.899              48.993              
C              13.9                42.771              49.094              
C              13.882              44.283              48.722              
C              12.532              44.691              48.225              
C              12.441              46.155              47.808              
N              11.076              46.402              47.196              
H              15.67               41.836              47.18               
H              15.797              42.722              50.022              
H              13.475              42.277              48.346              
H              13.373              42.664              49.928              
H              14.117              44.8                49.541              
H              14.568              44.431              48.015              
H              12.285              44.127              47.427              
H              11.847              44.533              48.947              
H              12.542              46.731              48.603              
H              13.133              46.348              47.13               
H              11.199              46.849              46.316              
H              10.618              45.527              47.078              
H              10.554              46.985              47.81               
N              15.343              40.53               51.075              
C              15.039              39.183              51.638              
C              14.059              39.384              52.792              
O              14.366              40.141              53.735              
C              16.345              38.519              52.178              
O              17.317              38.518              51.138              
C              16.092              37.072              52.503              
H              15.715              41.296              51.637              
H              14.598              38.649              50.932              
H              16.691              39.082              52.949              
H              16.833              36.498              52.139              
H              16.044              36.942              53.499              
H              15.223              36.77               52.097              
H              17.382              39.429              50.713              
N              12.864              38.874              52.681              
C              11.796              39.11               53.643              
C              11.443              37.799              54.35               
O              11.383              36.759              53.759              
C              10.53               39.592              52.907              
C              10.688              40.969              52.34               
H              12.725              38.267              51.829              
H              12.122              39.758              54.333              
H              10.332              38.959              52.159              
H              9.767               39.598              53.552              
N              9.803               41.485              51.412              
C              11.577              41.931              52.612              
C              10.155              42.693              51.096              
N              11.234              43.006              51.858              
H              9.01                40.985              51.048              
H              12.347              41.871              53.247              
H              9.743               43.296              50.434              
N              11.174              37.956              55.662              
C              10.674              36.774              56.393              
C              9.926               37.223              57.651              
O              9.954               38.395              57.976              
C              11.846              35.884              56.782              
O              12.62               36.411              57.838              
H              11.331              38.862              56.055              
H              10.025              36.299              55.8                
H              11.491              34.984              57.058              
H              12.438              35.76               55.978              
H              12.975              37.309              57.579              
N              9.325               36.264              58.354              
C              8.73                36.616              59.648              
C              9.744               36.969              60.697              
O              9.441               37.454              61.771              
C              7.887               35.401              60.137              
O              8.683               34.24               60.043              
C              6.646               35.266              59.284              
H              9.316               35.337              57.945              
H              8.118               37.417              59.5                
H              7.642               35.559              61.111              
H              5.829               35.228              59.867              
H              6.566               36.052              58.665              
H              6.693               34.425              58.737              
H              9.662               34.478              59.975              
N              11.021              36.594              60.49               
C              12.022              36.784              61.542              
C              12.827              38.075              61.287              
O              12.937              38.938              62.11               
C              12.93               35.571              61.562              
C              14.076              35.644              62.555              
C              13.936              36.229              63.78               
C              15.293              35.047              62.223              
C              14.978              36.213              64.718              
C              16.302              35.007              63.136              
C              16.15               35.586              64.391              
H              11.214              36.184              59.572              
H              11.526              36.925              62.4                
H              12.384              34.775              61.799              
H              13.329              35.464              60.658              
H              13.08               36.683              64.034              
H              15.408              34.653              61.313              
H              14.846              36.659              65.603              
H              17.186              34.548              62.902              
H              16.903              35.541              65.053              
N              13.495              38.193              60.154              
C              14.312              39.369              59.897              
C              14.147              39.744              58.413              
O              13.809              38.874              57.628              
C              15.818              38.983              60.086              
C              16.125              38.679              61.517              
C              17.574              38.487              61.821              
C              17.767              38.32               63.353              
N              18.717              39.364              63.865              
H              13.391              37.408              59.491              
H              13.986              40.127              60.45               
H              15.983              38.185              59.531              
H              16.353              39.755              59.785              
H              15.765              39.436              62.1                
H              15.617              37.838              61.793              
H              17.908              37.664              61.39               
H              18.091              39.28               61.543              
H              16.886              38.429              63.793              
H              18.141              37.419              63.526              
H              18.757              40.116              63.211              
H              18.39               39.697              64.746              
H              19.621              38.957              63.97               
N              14.353              40.958              58.088              
C              14.241              41.428              56.704              
C              15.543              42.19               56.397              
O              16.027              42.937              57.246              
C              13.083              42.448              56.588              
C              11.731              41.786              56.858              
O              11.306              40.966              55.967              
N              11.051              42.104              57.838              
H              14.609              41.609              58.87               
H              14.232              40.631              56.12               
H              13.227              43.158              57.259              
H              13.081              42.81               55.669              
H              11.4                42.836              58.484              
H              10.159              41.694              58.06               
N              16.055              42.047              55.203              
C              17.216              42.841              54.748              
C              16.942              43.409              53.365              
O              16.132              42.893              52.575              
C              18.473              41.993              54.701              
O              18.266              40.851              53.852              
C              18.853              41.443              56.075              
H              15.593              41.34               54.595              
H              17.343              43.599              55.389              
H              19.239              42.542              54.301              
H              18.036              41.092              56.535              
H              19.517              40.701              55.969              
H              19.257              42.172              56.63               
H              17.286              40.641              53.786              
N              17.662              44.489              53.052              
C              17.585              45.069              51.706              
C              18.939              45.671              51.403              
O              19.467              46.422              52.237              
C              16.514              46.202              51.661              
C              16.442              46.859              50.3                
C              15.289              47.82               50.163              
O              14.172              47.527              50.676              
O              15.487              48.907              49.554              
H              18.251              44.863              53.806              
H              17.372              44.358              51.049              
H              15.654              45.787              51.849              
H              16.782              46.872              52.314              
H              17.275              47.368              50.158              
H              16.326              46.153              49.62               
N              19.475              45.403              50.226              
C              20.695              46.024              49.759              
C              20.5                46.499              48.323              
O              19.769              45.834              47.562              
C              21.899              45.04               49.786              
C              21.711              43.729              49.04               
C              22.281              44.803              51.238              
C              22.923              42.836              48.961              
H              18.938              44.7                49.659              
H              20.83               46.846              50.313              
H              22.691              45.528              49.374              
H              20.96               43.218              49.48               
H              21.409              43.943              48.1                
H              23.137              44.291              51.279              
H              22.397              45.681              51.701              
H              21.561              44.281              51.693              
H              23.218              42.59               49.884              
H              22.694              42.006              48.453              
H              23.663              43.318              48.493              
N              21.124              47.579              47.979              
C              21.171              48.021              46.576              
C              22.653              48.186              46.201              
O              23.441              48.644              47.067              
C              20.456              49.34               46.323              
O              19.066              49.278              46.565              
H              21.584              48.108              48.745              
H              20.793              47.301              46.012              
H              20.857              50.045              46.918              
H              20.605              49.61               45.365              
H              18.898              48.837              47.447              
N              22.988              47.858              44.971              
C              24.396              47.891              44.566              
C              24.503              47.923              43.035              
O              23.53               47.646              42.329              
C              25.094              46.628              45.111              
C              24.45               45.326              44.713              
C              24.758              44.687              43.524              
C              23.501              44.746              45.503              
C              24.128              43.511              43.135              
C              22.886              43.546              45.174              
C              23.186              42.968              43.95               
H              22.22               47.589              44.346              
H              24.776              48.756              44.898              
H              26.024              46.629              44.766              
H              25.084              46.686              46.101              
H              25.459              45.08               42.919              
H              23.227              45.203              46.37               
H              24.379              43.086              42.26               
H              22.242              43.115              45.808              
H              22.693              42.131              43.668              
N              25.678              48.319              42.582              
H              26.312              48.722              43.303              
H              21.4143             49.5875             39.1284             
H              25.9264             48.2309             41.6113             
