172
1.xyz
C              9.555               5.716               -9.808              
O              10.466              5.435               -10.587             
N              8.366               5.118               -9.844              
C              8.085               4.086               -10.826             
C              7.981               2.705               -10.209             
O              7.417               1.791               -10.811             
H              7.689               5.444               -9.136              
H              7.216               4.304               -11.304             
H              8.817               4.083               -11.53              
N              8.519               2.552               -9.002              
C              8.474               1.272               -8.303              
C              7.099               1.048               -7.682              
O              6.631               1.858               -6.882              
C              9.554               1.223               -7.219              
C              10.962              1.059               -7.772              
C              11.846              2.243               -7.41               
N              13.187              2.118               -7.973              
C              14.057              3.121               -8.031              
N              13.724              4.316               -7.563              
N              15.259              2.931               -8.558              
H              8.963               3.404               -8.611              
H              8.652               0.534               -8.963              
H              9.52                2.073               -6.707              
H              9.364               0.451               -6.625              
H              11.374              0.235               -7.392              
H              10.923              0.994               -8.766              
H              11.416              3.069               -7.763              
H              11.908              2.288               -6.416              
H              13.467              1.226               -8.336              
H              12.835              4.48                -7.146              
H              14.384              5.076               -7.629              
H              15.513              2.02                -8.894              
H              15.908              3.685               -8.62               
N              6.449               -0.05               -8.06               
C              5.123               -0.364              -7.539              
C              5.205               -0.965              -6.14               
O              5.677               -2.088              -5.961              
C              4.378               -1.343              -8.462              
C              5.115               -2.688              -8.516              
C              2.916               -1.48               -8.013              
H              6.955               -0.646              -8.739              
H              4.599               0.495               -7.477              
H              4.396               -0.971              -9.383              
H              4.45                -3.429              -8.452              
H              5.613               -2.755              -9.378              
H              5.755               -2.742              -7.752              
H              2.536               -2.317              -8.4                
H              2.886               -1.52               -7.017              
H              2.402               -0.689              -8.339              
N              4.735               -0.211              -5.151              
C              4.745               -0.668              -3.765              
C              3.432               -1.363              -3.408              
O              2.511               -1.424              -4.222              
C              4.993               0.509               -2.82               
C              3.894               1.53                -2.833              
C              2.816               1.413               -1.974              
C              3.938               2.606               -3.706              
C              1.799               2.349               -1.982              
C              2.926               3.545               -3.72               
C              1.855               3.417               -2.857              
H              4.367               0.715               -5.445              
H              5.469               -1.362              -3.689              
H              5.068               0.15                -1.903              
H              5.829               0.953               -3.104              
H              2.769               0.645               -1.338              
H              4.714               2.702               -4.332              
H              1.021               2.246               -1.35               
H              2.973               4.326               -4.367              
H              1.118               4.096               -2.862              
N              3.354               -1.885              -2.185              
C              2.151               -2.573              -1.723              
C              1.383               -1.719              -0.715              
O              1.979               -0.953              0.042               
C              2.517               -3.918              -1.095              
C              3.253               -4.837              -2.027              
C              4.56                -4.565              -2.399              
C              2.639               -5.973              -2.531              
C              5.241               -5.409              -3.255              
C              3.315               -6.82               -3.388              
C              4.618               -6.538              -3.751              
H              4.203               -1.763              -1.603              
H              1.551               -2.686              -2.523              
H              3.099               -3.74               -0.317              
H              1.678               -4.364              -0.824              
H              5.017               -3.752              -2.045              
H              1.695               -6.181              -2.269              
H              6.192               -5.194              -3.515              
H              2.85                -7.647              -3.749              
H              5.113               -7.149              -4.372              
N              0.06                -1.855              -0.708              
C              -0.783              -1.092              0.209               
C              -1.989              -1.909              0.657               
O              -2.726              -2.434              -0.168              
C              -1.283              0.214               -0.451              
C              -2.204              0.997               0.497               
C              -1.993              -0.095              -1.759              
C              -2.99               2.117               -0.173              
H              -0.313              -2.536              -1.396              
H              -0.227              -0.925              1.03                
H              -0.488              0.782               -0.646              
H              -2.848              0.356               0.912               
H              -1.64               1.394               1.222               
H              -2.261              0.758               -2.204              
H              -1.379              -0.604              -2.361              
H              -2.807              -0.644              -1.576              
H              -3.566              1.728               -0.889              
H              -3.558              2.57                0.51                
H              -2.351              2.771               -0.57               
N              -2.193              -2.004              1.965               
C              -3.32               -2.758              2.498               
C              -4.513              -1.837              2.758               
O              -4.342              -0.651              3.036               
C              -2.912              -3.493              3.78                
C              -2.82               -2.578              4.988               
O              -2.822              -3.036              6.129               
N              -2.742              -1.277              4.737               
H              -1.501              -1.51               2.555               
H              -3.605              -3.412              1.79                
H              -3.592              -4.199              3.967               
H              -2.019              -3.913              3.63                
H              -2.751              -0.948              3.791               
H              -2.673              -0.623              5.49                
N              -5.719              -2.389              2.651               
C              -6.935              -1.609              2.862               
C              -7.645              -2.005              4.155               
O              -8.818              -1.685              4.346               
C              -7.886              -1.784              1.677               
C              -7.545              -0.918              0.503               
H              -5.719              -3.397              2.41                
H              -6.681              -0.634              2.929               
H              -7.864              -2.744              1.378               
H              -8.821              -1.561              1.972               
N              -8.521              -0.399              -0.311              
C              -6.332              -0.514              0.054               
C              -7.887              0.305               -1.232              
N              -6.558              0.265               -1.051              
H              -9.488              -0.525              -0.225              
H              -5.448              -0.74               0.45                
H              -8.335              0.812               -1.983              
N              -6.934              -2.691              5.045               
C              -7.517              -3.11               6.317               
C              -7.342              -2.022              7.368               
O              -8.283              -1.675              8.083               
C              -6.879              -4.412              6.805               
C              -6.542              -5.36               5.672               
H              -5.959              -2.896              4.765               
H              -8.504              -3.221              6.169               
H              -6.039              -4.187              7.293               
H              -7.52               -4.865              7.42                
O              -7.372              -6.166              5.251               
N              -5.316              -5.267              5.173               
H              -4.67               -4.602              5.55                
H              -5.034              -5.862              4.42                
N              -6.132              -1.481              7.45                
C              -5.826              -0.424              8.405               
C              -4.945              -0.941              9.558               
C              -3.863              -1.881              9.024               
C              -5.797              -1.645              10.602              
C              -3.055              -2.552              10.113              
H              -5.434              -1.871              6.785               
H              -6.708              -0.069              8.727               
H              -4.496              -0.158              9.975               
H              -4.301              -2.582              8.466               
H              -3.245              -1.35               8.447               
H              -5.22               -1.938              11.363              
H              -6.498              -1.018              10.94               
H              -6.236              -2.443              10.192              
H              -3.664              -3.093              10.691              
H              -2.37               -3.149              9.697               
H              -2.6                -1.855              10.666              
H              9.6925              6.46634             -9.06046            
H              -5.31613            0.408302            7.9095              
