282
2.xyz
C              -5.116              0.735               7.715               
O              -4.371              1.485               8.345               
N              -5.355              0.874               6.411               
C              -4.744              1.939               5.617               
C              -3.268              2.119               5.966               
O              -2.893              3.069               6.653               
C              -5.495              3.258               5.828               
C              -6.986              3.085               6.082               
C              -7.609              2.088               5.118               
C              -8.92               2.606               4.55                
N              -9.74               1.514               3.957               
H              -6.006              0.167               6.012               
H              -4.817              1.699               4.64                
H              -5.094              3.722               6.614               
H              -5.378              3.816               5.01                
H              -7.121              2.757               7.019               
H              -7.441              3.97                5.972               
H              -6.977              1.93                4.365               
H              -7.787              1.238               5.603               
H              -9.442              3.047               5.286               
H              -8.721              3.289               3.842               
H              -10.412             1.203               4.628               
H              -10.211             1.857               3.145               
H              -9.144              0.753               3.702               
N              -2.438              1.197               5.488               
C              -1.004              1.25                5.75                
C              -0.217              0.595               4.621               
O              -0.327              -0.609              4.39                
C              -0.683              0.561               7.075               
C              0.365               1.288               7.902               
C              1.129               0.327               8.798               
C              2.631               0.509               8.659               
N              3.372               -0.066              9.816               
H              -2.89               0.452               4.924               
H              -0.721              2.215               5.823               
H              -1.522              0.506               7.61                
H              -0.346              -0.356              6.876               
H              1.011               1.739               7.286               
H              -0.086              1.974               8.473               
H              0.875               0.498               9.745               
H              0.897               -0.606              8.542               
H              2.937               0.058               7.816               
H              2.836               1.49                8.593               
H              4.033               0.604               10.152              
H              2.725               -0.293              10.544              
H              3.852               -0.893              9.524               
N              0.579               1.395               3.922               
C              1.389               0.897               2.816               
C              2.808               0.578               3.279               
O              3.196               0.915               4.397               
C              1.456               1.916               1.664               
O              2.384               1.469               0.668               
C              1.875               3.285               2.176               
H              0.575               2.389               4.226               
H              0.972               0.048               2.47                
H              0.533               1.984               1.231               
H              2.778               3.226               2.607               
H              1.917               3.935               1.414               
H              1.211               3.614               2.851               
H              2.209               0.507               0.434               
N              3.58                -0.077              2.414               
C              4.954               -0.439              2.74                
C              5.768               -0.684              1.474               
O              5.236               -1.134              0.457               
C              4.968               -1.692              3.611               
C              4.018               -2.766              3.115               
C              4.368               -4.142              3.637               
H              3.126               -0.301              1.508               
H              5.373               0.335               3.229               
H              5.891               -2.07               3.617               
H              4.699               -1.442              4.54                
H              3.091               -2.538              3.414               
H              4.049               -2.785              2.115               
O              4.011               -4.505              4.757               
N              5.068               -4.916              2.82                
H              5.355               -5.854              3.105               
H              5.318               -4.564              1.898               
N              7.061               -0.388              1.545               
C              7.956               -0.576              0.409               
C              8.232               -2.057              0.17                
O              8.239               -2.522              -0.97               
C              9.272               0.168               0.644               
C              9.35                1.481               -0.075              
C              9.572               2.708               0.482               
C              9.207               1.698               -1.484              
N              9.575               3.674               -0.495              
C              9.354               3.079               -1.709              
C              8.97                0.858               -2.576              
C              9.271               3.639               -2.981              
C              8.887               1.415               -3.838              
C              9.038               2.794               -4.032              
H              7.374               -0.017              2.464               
H              7.493               -0.218              -0.41               
H              9.367               0.356               1.613               
H              10.022              -0.393              0.318               
H              9.712               2.88                1.455               
H              9.715               4.652               -0.346              
H              8.863               -0.126              -2.451              
H              9.38                4.631               -3.106              
H              8.716               0.823               -4.621              
H              8.973               3.158               -4.961              
N              8.462               -2.794              1.253               
C              8.744               -4.223              1.162               
C              7.569               -4.975              0.545               
O              6.511               -4.398              0.296               
C              9.055               -4.792              2.549               
C              10.528              -4.724              2.917               
C              10.859              -3.516              3.771               
O              9.924               -2.923              4.351               
O              12.054              -3.162              3.862               
H              8.424               -2.274              2.151               
H              9.568               -4.371              0.601               
H              8.557               -4.26               3.208               
H              8.789               -5.737              2.551               
H              10.753              -5.526              3.436               
H              11.051              -4.655              2.089               
N              7.765               -6.268              0.302               
C              6.722               -7.103              -0.284              
C              6.113               -8.028              0.771               
O              6.787               -8.923              1.28                
C              7.296               -7.933              -1.433              
C              8.038               -7.085              -2.446              
O              9.022               -6.42               -2.058              
O              7.636               -7.085              -3.629              
H              8.705               -6.623              0.561               
H              5.988               -6.491              -0.595              
H              7.926               -8.596              -1.048              
H              6.542               -8.39               -1.888              
N              4.829               -7.827              1.119               
C              4.148               -8.652              2.121               
C              3.774               -10.031             1.589               
O              3.777               -11.014             2.331               
C              2.892               -7.844              2.444               
C              2.606               -7.077              1.199               
C              3.942               -6.781              0.57                
H              4.714               -8.734              2.958               
H              2.128               -8.454              2.675               
H              3.057               -7.227              3.218               
H              2.029               -7.619              0.573               
H              2.116               -6.222              1.414               
H              3.9                 -6.847              -0.428              
H              4.275               -5.871              0.826               
N              3.452               -10.101             0.301               
C              3.074               -11.364             -0.324              
C              4.289               -12.267             -0.523              
O              4.154               -13.482             -0.658              
C              2.39                -11.112             -1.668              
C              3.093               -10.072             -2.525              
C              2.82                -10.293             -4.004              
N              3.19                -11.637             -4.434              
C              2.907               -12.132             -5.635              
N              2.261               -11.389             -6.524              
N              3.271               -13.367             -5.949              
H              3.492               -9.199              -0.209              
H              2.416               -11.839             0.274               
H              2.371               -11.968             -2.174              
H              1.465               -10.793             -1.492              
H              2.766               -9.163              -2.281              
H              4.077               -10.131             -2.379              
H              1.846               -10.152             -4.163              
H              3.35                -9.624              -4.519              
H              3.686               -12.221             -3.787              
H              1.996               -10.451             -6.32               
H              2.034               -11.78              -7.426              
H              3.779               -13.918             -5.281              
H              3.045               -13.749             -6.842              
N              5.475               -11.665             -0.543              
C              6.709               -12.419             -0.728              
C              7.209               -12.982             0.598               
O              7.744               -14.089             0.651               
C              7.783               -11.529             -1.356              
C              8.482               -12.168             -2.544              
S              8.118               -11.329             -4.098              
C              9.704               -11.438             -4.922              
H              5.445               -10.636             -0.418              
H              6.516               -13.194             -1.341              
H              7.357               -10.669             -1.661              
H              8.475               -11.311             -0.658              
H              9.492               -12.174             -2.363              
H              8.207               -13.155             -2.592              
H              9.646               -12.094             -5.676              
H              9.958               -10.539             -5.283              
H              10.401              -11.743             -4.271              
N              7.032               -12.213             1.667               
C              7.466               -12.637             2.994               
C              6.511               -13.677             3.57                
O              5.716               -13.379             4.46                
C              7.555               -11.433             3.933               
C              8.783               -10.569             3.696               
C              10.073              -11.276             4.062               
H              6.568               -11.304             1.48                
H              8.37                -13.068             2.903               
H              6.744               -10.864             3.803               
H              7.584               -11.763             4.877               
H              8.819               -10.321             2.728               
H              8.704               -9.741              4.25                
O              10.515              -11.23              5.21                
N              10.684              -11.936             3.085               
H              11.561              -12.423             3.252               
H              10.258              -11.948             2.159               
N              6.597               -14.9               3.056               
C              5.74                -15.985             3.519               
C              6.291               -17.338             3.082               
O              6.707               -17.509             1.936               
C              4.319               -15.802             2.985               
C              4.294               -15.507             1.497               
H              7.312               -15.012             2.312               
H              5.758               -15.971             4.525               
H              3.809               -16.64              3.151               
H              3.897               -15.04              3.467               
O              5.326               -15.217             0.893               
N              3.111               -15.58              0.899               
H              2.296               -15.814             1.432               
H              3.031               -15.402             -0.081              
N              6.288               -18.297             4.001               
C              6.786               -19.635             3.709               
C              6.237               -20.654             4.702               
O              6.908               -21.627             5.046               
C              8.327               -19.683             3.736               
C              8.852               -19.446             5.144               
C              8.827               -21.012             3.188               
H              5.908               -18.016             4.925               
H              6.467               -19.896             2.79                
H              8.662               -18.935             3.169               
H              9.747               -19.88              5.244               
H              8.939               -18.463             5.308               
H              8.216               -19.839             5.808               
H              9.448               -21.43              3.851               
H              8.047               -21.617             3.028               
H              9.311               -20.853             2.328               
N              5.011               -20.422             5.16                
C              4.37                -21.318             6.114               
C              2.89                -20.983             6.263               
O              2.48                -19.838             6.075               
C              5.07                -21.241             7.462               
H              4.56                -19.565             4.786               
H              4.452               -22.264             5.778               
H              5.932               -21.746             7.421               
H              5.256               -20.285             7.689               
H              4.484               -21.641             8.167               
N              2.091               -21.99              6.602               
C              0.656               -21.8               6.776               
C              0.058               -22.898             7.649               
O              0.768               -23.788             8.116               
C              -0.076              -21.783             5.42                
C              0.249               -23.051             4.628               
C              0.308               -20.544             4.626               
C              -0.784              -24.148             4.795               
H              2.568               -22.903             6.729               
H              0.544               -20.939             7.282               
H              -1.053              -21.773             5.599               
H              0.315               -22.813             3.662               
H              1.133               -23.395             4.937               
H              -0.2                -20.527             3.766               
H              0.09                -19.726             5.156               
H              1.288               -20.562             4.432               
H              -1.672              -23.816             4.481               
H              -0.512              -24.942             4.254               
H              -0.843              -24.402             5.759               
N              -1.252              -22.828             7.863               
C              -1.946              -23.818             8.678               
C              -3.151              -24.39              7.94                
O              -3.965              -23.647             7.391               
C              -2.417              -23.215             10.015              
O              -3.42               -24.052             10.604              
C              -2.974              -21.815             9.812               
H              -1.727              -22.025             7.409               
H              -1.309              -24.573             8.876               
H              -1.622              -23.173             10.655              
H              -3.976              -21.847             9.792               
H              -2.68               -21.219             10.563              
H              -2.641              -21.438             8.945               
H              -3.201              -25.021             10.45               
N              -3.259              -25.714             7.929               
C              -4.367              -26.362             7.254               
C              -4.886              -27.566             8.017               
O              -4.139              -28.101             8.862               
O              -6.042              -27.972             7.769               
H              -2.508              -26.22              8.427               
H              -5.122              -25.696             7.129               
H              -4.073              -26.656             6.328               
H              -5.61157            -0.0739664          8.19661             
