283
0.xyz
N              -32.001             10.792              33.223              
C              -32.277             9.864               34.364              
C              -33.442             10.364              35.309              
O              -33.997             11.442              35.083              
C              -30.913             9.468               35.026              
C              -30.062             10.485              35.851              
C              -30.722             10.902              37.182              
C              -29.829             11.63               38.207              
N              -30.64              11.838              39.45               
H              -31.548             11.608              33.571              
H              -32.547             8.968               33.992              
H              -31.096             8.663               35.637              
H              -30.309             9.106               34.278              
H              -29.175             10.063              36.049              
H              -29.92              11.303              35.29               
H              -31.509             11.506              36.969              
H              -31.092             10.07               37.627              
H              -29.053             11.062              38.411              
H              -29.566             12.501              37.836              
H              -30.987             12.774              39.461              
H              -31.402             11.194              39.454              
H              -30.061             11.682              40.248              
H              -31.413             10.331              32.565              
H              -32.863             11.041              32.792              
N              -33.833             9.597               36.344              
C              -34.906             10.002              37.315              
C              -34.525             11.109              38.39               
O              -33.339             11.433              38.525              
C              -35.398             8.677               37.972              
C              -34.438             8.064               39.03               
C              -34.894             8.459               40.433              
C              -34.369             6.532               38.933              
H              -33.33              8.689               36.424              
H              -35.696             10.364              36.779              
H              -36.253             8.869               38.428              
H              -35.509             8.01                37.254              
H              -33.523             8.413               38.864              
H              -35.82              8.118               40.589              
H              -34.273             8.062               41.108              
H              -34.886             9.455               40.516              
H              -34.04              6.276               38.026              
H              -33.743             6.188               39.63               
H              -35.281             6.153               39.081              
N              -35.448             11.684              39.218              
C              -35.098             12.802              40.138              
C              -34.229             12.573              41.445              
O              -34.152             11.454              41.976              
C              -36.472             13.46               40.361              
C              -37.415             12.924              39.296              
C              -36.911             11.506              39.083              
H              -34.663             13.583              39.587              
H              -36.826             13.241              41.283              
H              -36.401             14.466              40.291              
H              -38.346             12.924              39.631              
H              -37.334             13.458              38.467              
H              -37.256             10.893              39.781              
H              -37.142             11.174              38.177              
N              -33.524             13.614              41.994              
C              -32.685             13.471              43.215              
C              -33.516             13.283              44.528              
O              -34.467             14.02               44.8                
C              -31.862             14.773              43.17               
C              -32.791             15.814              42.541              
C              -33.676             15.025              41.574              
H              -32.032             12.706              43.109              
H              -31.597             15.06               44.091              
H              -31.042             14.659              42.609              
H              -33.341             16.252              43.247              
H              -32.255             16.498              42.053              
H              -34.632             15.315              41.648              
H              -33.368             15.148              40.628              
N              -33.17              12.252              45.306              
C              -34.032             11.787              46.43               
C              -35.145             10.76               46.131              
O              -36.123             10.736              46.879              
H              -32.268             11.806              45.071              
H              -33.417             11.401              47.167              
H              -34.462             12.619              46.87               
N              -35.005             9.887               45.124              
C              -35.966             8.791               44.857              
C              -35.464             7.343               45.15               
O              -34.291             7.104               45.448              
C              -36.213             8.999               43.341              
C              -37.443             9.818               43.034              
C              -37.433             11.192              42.792              
C              -38.756             9.429               43.014              
N              -38.731             11.7                42.621              
C              -39.533             10.588              42.776              
C              -39.369             8.155               43.152              
C              -40.925             10.483              42.624              
C              -40.765             8.114               43.11               
C              -41.534             9.248               42.829              
H              -34.156             10.042              44.536              
H              -36.779             8.947               45.456              
H              -35.436             9.477               42.957              
H              -36.334             8.113               42.916              
H              -36.606             11.749              42.746              
H              -38.987             12.603              42.44               
H              -38.838             7.341               43.27               
H              -41.466             11.296              42.371              
H              -41.22              7.24                43.289              
H              -42.521             9.173               42.775              
N              -36.363             6.355               44.963              
C              -35.986             5.013               44.508              
C              -37.129             4.366               43.652              
O              -38.289             4.782               43.62               
C              -35.508             4.165               45.735              
C              -34.309             3.208               45.502              
C              -34.616             1.884               44.85               
O              -35.219             1.006               45.503              
O              -34.27              1.722               43.664              
H              -37.346             6.633               45.171              
H              -35.157             5.058               43.947              
H              -35.241             4.803               46.443              
H              -36.275             3.61                46.023              
H              -33.657             3.693               44.924              
H              -33.902             3.026               46.394              
N              -36.738             3.34                42.912              
C              -37.653             2.447               42.147              
C              -37.895             1.09                42.898              
O              -36.973             0.301               43.125              
C              -37.193             2.393               40.659              
C              -35.809             1.786               40.331              
C              -35.836             0.246               40.193              
C              -34.51              -0.432              40.592              
N              -34.419             -0.415              42.091              
H              -35.693             3.191               42.899              
H              -38.538             2.905               42.042              
H              -37.89              1.868               40.144              
H              -37.206             3.342               40.302              
H              -35.484             2.177               39.467              
H              -35.169             2.029               41.063              
H              -36.56              -0.111              40.781              
H              -36.031             0.017               39.241              
H              -34.521             -1.362              40.274              
H              -33.763             0.082               40.212              
H              -34.448             -1.353              42.429              
H              -33.561             0.017               42.359              
H              -35.189             0.102               42.457              
N              -39.144             0.803               43.306              
C              -39.468             -0.421              44.078              
C              -40.086             -1.459              43.096              
O              -40.532             -1.132              41.997              
C              -40.43              -0.061              45.244              
C              -39.903             0.927               46.312              
C              -38.636             0.493               47.073              
N              -38.464             1.386               48.259              
C              -37.312             1.889               48.681              
N              -36.153             1.694               48.114              
N              -37.349             2.638               49.729              
H              -39.859             1.506               43.037              
H              -38.632             -0.8                44.446              
H              -41.26              0.339               44.845              
H              -40.674             -0.913              45.715              
H              -39.705             1.813               45.866              
H              -40.632             1.085               46.996              
H              -38.761             -0.425              47.381              
H              -37.868             0.602               46.478              
H              -39.303             1.617               48.773              
H              -36.124             1.128               47.27               
H              -35.319             2.08                48.481              
H              -38.192             2.87                50.218              
H              -36.478             3.033               50.103              
N              -40.064             -2.723              43.492              
C              -40.485             -3.84               42.611              
C              -41.191             -5.004              43.356              
O              -40.59              -5.65               44.22               
C              -39.23              -4.343              41.828              
C              -39.475             -4.313              40.32               
S              -40.486             -5.716              39.798              
C              -41.998             -4.893              39.285              
H              -39.73              -2.876              44.465              
H              -41.142             -3.469              41.933              
H              -38.466             -3.748              42.044              
H              -39.04              -5.276              42.106              
H              -39.927             -3.433              40.083              
H              -38.576             -4.319              39.845              
H              -42.658             -4.909              40.037              
H              -41.795             -3.945              39.04               
H              -42.383             -5.367              38.493              
N              -42.414             -5.368              42.918              
C              -42.994             -6.723              43.167              
C              -43.531             -7.071              44.602              
O              -43.01              -6.63               45.627              
C              -42.108             -7.839              42.556              
O              -40.992             -8.149              43.39               
H              -42.922             -4.631              42.393              
H              -43.787             -6.84               42.517              
H              -42.665             -8.656              42.443              
H              -41.774             -7.526              41.672              
H              -40.684             -7.318              43.848              
N              -44.593             -7.899              44.666              
C              -44.993             -8.63               45.906              
C              -45.206             -10.152             45.59               
O              -44.406             -10.978             46.026              
C              -46.226             -7.943              46.559              
C              -46.017             -6.464              46.969              
C              -47.238             -5.796              47.625              
N              -48.557             -5.842              46.916              
C              -48.82              -5.357              45.715              
N              -47.943             -4.852              44.906              
N              -50.059             -5.262              45.371              
H              -45.12              -7.991              43.772              
H              -44.259             -8.552              46.574              
H              -46.976             -7.973              45.906              
H              -46.464             -8.453              47.379              
H              -45.25              -6.413              47.618              
H              -45.778             -5.932              46.15               
H              -47.362             -6.217              48.546              
H              -47.003             -4.816              47.787              
H              -49.316             -6.295              47.423              
H              -46.967             -4.837              45.196              
H              -48.195             -4.484              44.018              
H              -50.818             -5.554              45.957              
H              -50.306             -4.872              44.456              
N              -46.251             -10.525             44.82               
C              -46.44              -11.912             44.297              
C              -46.366             -11.963             42.733              
O              -45.374             -12.435             42.18               
C              -47.728             -12.516             44.919              
O              -48.918             -11.813             44.538              
H              -46.926             -9.757              44.616              
H              -45.691             -12.478             44.65               
H              -47.807             -13.466             44.62               
H              -47.641             -12.484             45.914              
H              -48.662             -10.958             44.094              
N              -47.369             -11.429             42.006              
C              -47.398             -11.47              40.508              
C              -46.404             -10.553             39.692              
O              -46.483             -10.538             38.458              
C              -48.874             -11.186             40.118              
O              -49.068             -11.269             38.703              
H              -48.121             -10.986             42.565              
H              -47.201             -12.442             40.225              
H              -49.452             -11.86              40.564              
H              -49.108             -10.27              40.423              
H              -49.467             -12.155             38.48               
N              -45.512             -9.772              40.327              
C              -44.576             -8.851              39.626              
C              -45.13              -7.427              39.448              
O              -45.238             -6.955              38.314              
H              -45.528             -9.864              41.368              
H              -43.71              -8.808              40.15               
H              -44.359             -9.24               38.716              
N              -45.554             -6.771              40.549              
C              -46.066             -5.376              40.51               
C              -45.521             -4.473              41.669              
O              -45.488             -4.833              42.845              
C              -47.617             -5.256              40.437              
C              -48.297             -5.732              39.129              
C              -48.634             -7.226              39.199              
N              -49.337             -7.732              37.985              
C              -48.742             -8.198              36.889              
N              -47.46              -8.124              36.669              
N              -49.482             -8.752              35.983              
H              -45.493             -7.323              41.427              
H              -45.789             -4.955              39.634              
H              -48.001             -5.793              41.191              
H              -47.856             -4.292              40.568              
H              -49.139             -5.228              39.001              
H              -47.676             -5.588              38.372              
H              -47.782             -7.733              39.308              
H              -49.221             -7.375              39.992              
H              -50.346             -7.715              38.006              
H              -46.864             -7.706              37.373              
H              -47.056             -8.47               35.826              
H              -50.474             -8.858              36.087              
H              -49.061             -9.102              35.123              
N              -45.19              -3.263              41.241              
C              -44.677             -2.087              42.021              
C              -44.824             -1.968              43.588              
C              -43.729             -2.618              44.45               
C              -45.029             -0.528              44.118              
H              -45.327             -3.16               40.169              
H              -45.416             -1.415              42.081              
H              -45.7               -2.423              43.834              
H              -42.907             -2.736              43.898              
H              -43.532             -2.026              45.228              
H              -44.051             -3.505              44.772              
H              -46                 -0.312              44.081              
H              -44.7               -0.486              45.057              
H              -44.512             0.098               43.542              
H              -43.8088            -1.59078            41.5018             
