306
6.xyz
C              26.763              42.612              10.491              
O              26.359              41.567              10.998              
N              27.997              43.076              10.652              
C              29.026              42.385              11.425              
C              28.615              41.938              12.83               
O              28.886              40.797              13.23               
C              30.295              43.272              11.515              
C              30.866              43.471              10.115              
C              31.346              42.625              12.415              
C              31.997              44.49               10.049              
H              28.174              43.994              10.17               
H              29.246              41.533              10.906              
H              30.021              44.153              11.869              
H              31.207              42.594              9.78                
H              30.13               43.779              9.513               
H              32.148              43.217              12.466              
H              30.966              42.498              13.329              
H              31.607              41.74               12.035              
H              32.744              44.186              10.636              
H              32.315              44.563              9.107               
H              31.658              45.374              10.362              
N              27.955              42.815              13.575              
C              27.558              42.468              14.931              
C              26.523              41.347              15.033              
O              26.37               40.721              16.088              
C              27.074              43.717              15.68               
C              28.209              44.681              16.019              
S              29.653              43.798              16.71               
C              29.075              43.441              18.345              
H              27.759              43.72               13.128              
H              28.393              42.163              15.437              
H              26.406              44.201              15.11               
H              26.632              43.434              16.534              
H              28.474              45.186              15.177              
H              27.868              45.372              16.682              
H              29.705              43.825              19.026              
H              28.164              43.841              18.485              
H              29.017              42.448              18.482              
N              25.817              41.083              13.943              
C              24.832              40.016              13.944              
C              25.511              38.67               14.126              
O              24.96               37.765              14.76               
C              24.054              39.995              12.625              
C              22.927              41                  12.481              
C              22.246              40.786              11.143              
C              21.949              40.823              13.618              
H              26.022              41.68               13.127              
H              24.2                40.16               14.713              
H              24.707              40.165              11.887              
H              23.662              39.082              12.521              
H              23.3                41.921              12.519              
H              21.876              39.857              11.098              
H              21.499              41.444              11.036              
H              22.908              40.914              10.403              
H              22.415              40.97               14.494              
H              21.201              41.484              13.529              
H              21.57               39.895              13.6                
N              26.699              38.52               13.555              
C              27.406              37.247              13.657              
C              27.842              36.948              15.087              
O              28.011              35.791              15.473              
C              28.618              37.244              12.723              
O              29.414              38.398              12.921              
H              27.062              39.342              13.057              
H              26.773              36.514              13.367              
H              29.166              36.435              12.911              
H              28.296              37.229              11.781              
H              29.094              39.131              12.322              
N              28.025              38.006              15.864              
C              28.431              37.864              17.24               
C              27.181              37.478              18.027              
O              27.259              36.775              19.034              
C              29.039              39.176              17.727              
C              29.765              39.076              19.053              
C              30.834              40.144              19.206              
H              27.853              38.921              15.401              
H              29.072              37.11               17.307              
H              29.691              39.504              17.037              
H              28.304              39.855              17.823              
H              29.103              39.183              19.793              
H              30.201              38.18               19.117              
O              30.647              41.289              18.8                
N              31.955              39.774              19.803              
H              32.723              40.431              19.93               
H              32.043              38.815              20.139              
N              26.024              37.916              17.542              
C              24.734              37.588              18.161              
C              24.506              36.079              17.982              
O              24.096              35.367              18.9                
C              23.634              38.389              17.456              
C              22.193              38.166              17.904              
C              21.277              39.007              16.996              
C              19.786              38.76               17.209              
N              18.963              39.535              16.208              
H              26.107              38.51               16.689              
H              24.778              37.79               19.131              
H              23.846              39.374              17.569              
H              23.688              38.183              16.464              
H              21.959              37.217              17.796              
H              22.086              38.473              18.832              
H              21.468              39.977              17.169              
H              21.502              38.797              16.04               
H              19.596              37.788              17.097              
H              19.533              39.053              18.128              
H              18.371              40.167              16.7                
H              19.578              40.038              15.608              
H              18.415              38.894              15.678              
N              24.789              35.603              16.778              
C              24.645              34.195              16.425              
C              25.615              33.335              17.236              
O              25.296              32.218              17.666              
C              24.947              34.022              14.932              
C              25.06               32.574              14.481              
C              23.658              31.975              14.454              
C              25.72               32.498              13.103              
H              25.126              36.326              16.097              
H              23.708              33.903              16.641              
H              24.208              34.44               14.424              
H              25.81               34.466              14.745              
H              25.619              32.071              15.125              
H              23.088              32.491              13.815              
H              23.709              31.021              14.159              
H              23.259              32.021              15.37               
H              26.634              32.898              13.152              
H              25.787              31.542              12.821              
H              25.167              33.005              12.443              
N              26.812              33.873              17.421              
C              27.868              33.206              18.157              
C              27.378              32.877              19.557              
O              27.398              31.72               19.974              
C              29.074              34.133              18.229              
C              30.267              33.601              19.007              
C              31.31               34.68               19.192              
O              32.108              34.618              20.123              
N              31.309              35.679              18.31               
H              26.928              34.822              16.989              
H              28.076              32.342              17.694              
H              29.383              34.336              17.29               
H              28.789              35.003              18.657              
H              29.957              33.298              19.9                
H              30.669              32.849              18.5                
H              31.97               36.442              18.381              
H              30.623              35.66               17.554              
N              26.918              33.906              20.261              
C              26.423              33.756              21.629              
C              25.193              32.869              21.753              
O              25.087              32.09               22.696              
C              26.134              35.13               22.227              
C              27.337              36.05               22.154              
S              28.876              35.218              22.681              
C              29.149              35.988              24.28               
H              26.94               34.819              19.761              
H              27.168              33.338              22.185              
H              25.377              35.553              21.726              
H              25.873              35.02               23.188              
H              27.434              36.395              21.198              
H              27.165              36.871              22.736              
H              28.549              36.783              24.374              
H              28.947              35.33               25.006              
H              30.103              36.28               24.351              
N              24.265              32.971              20.809              
C              23.065              32.146              20.863              
C              23.37               30.665              20.615              
O              22.802              29.782              21.268              
C              22.005              32.614              19.83               
C              21.626              34.073              20.097              
C              20.779              31.692              19.88               
C              21.262              34.369              21.538              
H              24.461              33.657              20.066              
H              22.717              32.21               21.807              
H              22.417              32.56               18.931              
H              22.397              34.653              19.832              
H              20.844              34.304              19.516              
H              20.124              31.981              19.187              
H              21.067              30.755              19.702              
H              20.362              31.751              20.783              
H              22.041              34.156              22.126              
H              21.029              35.336              21.628              
H              20.479              33.809              21.802              
N              24.269              30.389              19.676              
C              24.623              29.009              19.373              
C              25.465              28.4                20.5                
O              25.426              27.182              20.727              
C              25.366              28.927              18.035              
C              24.508              29.17               16.783              
C              25.373              29.008              15.541              
C              23.316              28.191              16.758              
H              24.677              31.207              19.2                
H              23.779              28.469              19.286              
H              26.082              29.615              18.04               
H              25.754              28.018              17.955              
H              24.144              30.094              16.817              
H              25.749              28.081              15.514              
H              24.818              29.166              14.724              
H              26.122              29.67               15.567              
H              22.76               28.336              17.573              
H              22.772              28.363              15.94               
H              23.664              27.257              16.745              
N              26.223              29.25               21.192              
C              27.045              28.815              22.323              
C              26.098              28.226              23.366              
O              26.349              27.155              23.918              
C              27.779              30.002              22.947              
C              28.947              30.54               22.153              
C              30.249              29.842              22.524              
C              31.399              30.852              22.552              
N              31.434              31.707              21.323              
H              26.181              30.236              20.864              
H              27.668              28.107              22.018              
H              27.113              30.745              23.075              
H              28.114              29.717              23.852              
H              28.776              30.399              21.176              
H              29.047              31.52               22.332              
H              30.158              29.446              23.425              
H              30.453              29.154              21.845              
H              31.292              31.44               23.358              
H              32.266              30.352              22.628              
H              31.338              31.126              20.517              
H              30.682              32.362              21.359              
H              32.305              32.193              21.288              
N              25.009              28.937              23.635              
C              24.033              28.467              24.605              
C              23.608              27.062              24.263              
O              23.655              26.162              25.103              
C              22.793              29.358              24.618              
C              23.08               30.736              25.136              
O              24.047              30.881              25.916              
O              22.331              31.669              24.779              
H              24.921              29.823              23.111              
H              24.494              28.433              25.497              
H              22.456              29.424              23.684              
H              22.113              28.925              25.2                
N              23.191              26.871              23.019              
C              22.746              25.562              22.592              
C              23.88               24.554              22.499              
O              23.645              23.347              22.42               
C              21.999              25.675              21.264              
C              20.697              26.413              21.423              
C              20.663              27.808              21.497              
C              19.499              25.713              21.584              
C              19.471              28.484              21.736              
C              18.302              26.378              21.824              
C              18.292              27.758              21.899              
O              17.104              28.402              22.153              
H              23.213              27.705              22.412              
H              22.074              25.214              23.271              
H              22.568              26.173              20.628              
H              21.805              24.763              20.937              
H              21.508              28.329              21.377              
H              19.504              24.717              21.524              
H              19.457              29.481              21.79               
H              17.456              25.86               21.942              
H              16.708              28.712              21.29               
N              25.112              25.049              22.528              
C              26.281              24.175              22.466              
C              26.557              23.585              23.855              
O              27.697              23.264              24.187              
C              27.498              24.956              21.985              
H              25.171              26.08               22.597              
H              26.092              23.422              21.834              
H              27.23               25.896              21.777              
H              28.196              24.959              22.7                
H              27.866              24.525              21.162              
N              25.517              23.456              24.67               
C              25.691              22.908              26.005              
C              24.384              22.544              26.69               
O              24.269              22.623              27.911              
C              26.503              23.878              26.867              
C              26.07               25.316              26.816              
C              27.19               26.193              27.347              
C              26.905              27.669              27.11               
N              28.014              28.536              27.603              
H              24.612              23.767              24.286              
H              26.267              22.069              25.941              
H              26.448              23.559              27.821              
H              27.464              23.82               26.57               
H              25.88               25.574              25.876              
H              25.266              25.444              27.384              
H              27.282              26.042              28.327              
H              28.036              25.956              26.881              
H              26.781              27.822              26.126              
H              26.058              27.918              27.587              
H              28.044              29.374              27.06               
H              27.854              28.763              28.563              
H              28.88               28.047              27.513              
N              23.409              22.135              25.884              
C              22.101              21.729              26.376              
C              21.887              20.241              26.183              
O              20.941              19.693              26.786              
C              20.994              22.498              25.662              
C              20.719              23.879              26.252              
C              19.467              24.459              25.617              
C              20.538              23.755              27.77               
O              22.667              19.652              25.416              
H              23.664              22.131              24.869              
H              22.051              21.935              27.361              
H              21.267              22.626              24.721              
H              20.161              21.973              25.731              
H              21.494              24.474              26.063              
H              18.688              23.858              25.8                
H              19.284              25.365              26.002              
H              19.598              24.539              24.628              
H              21.372              23.378              28.171              
H              20.358              24.659              28.154              
H              19.768              23.148              27.961              
H              26.1348             43.2088             9.87258             
