351
1.xyz
C              -1.693              -4.013              -1.329              
O              -1.534              -4.613              -0.286              
N              -1.711              -4.621              -2.476              
C              -1.537              -6.088              -2.57               
C              -0.073              -6.452              -2.35               
O              0.825               -5.743              -2.76               
C              -1.964              -6.414              -3.995              
C              -3.459              -6.187              -4.138              
C              -4.118              -7.457              -4.686              
C              -5.011              -7.095              -5.874              
N              -4.173              -7.363              -7.077              
H              -1.853              -4.025              -3.312              
H              -2.092              -6.519              -1.857              
H              -1.496              -5.811              -4.609              
H              -1.772              -7.359              -4.171              
H              -3.849              -5.985              -3.249              
H              -3.622              -5.445              -4.774              
H              -3.415              -8.072              -4.996              
H              -4.677              -7.856              -3.981              
H              -5.79               -7.68               -5.878              
H              -5.232              -6.147              -5.831              
H              -3.616              -8.177              -6.917              
H              -4.767              -7.513              -7.867              
H              -3.579              -6.578              -7.248              
N              0.169               -7.549              -1.703              
C              1.574               -7.967              -1.443              
C              1.884               -9.272              -2.176              
O              1.314               -10.303             -1.882              
C              1.637               -8.178              0.071               
C              3.089               -8.099              0.539               
H              -0.639              -8.099              -1.388              
H              2.16                -7.257              -1.835              
H              1.127               -7.464              0.512               
H              1.289               -9.073              0.281               
O              3.939               -7.603              -0.17               
N              3.411               -8.57               1.712               
H              2.674               -8.985              2.28                
H              4.338               -8.534              2.056               
N              2.789               -9.246              -3.12               
C              3.125               -10.504             -3.841              
C              4.338               -11.151             -3.172              
O              4.479               -12.358             -3.15               
C              3.423               -10.084             -5.281              
C              2.233               -9.342              -5.833              
H              3.231               -8.35               -3.322              
H              2.348               -11.121             -3.759              
H              4.201               -9.479              -5.293              
H              3.573               -10.887             -5.833              
N              1.126               -10.002             -6.346              
C              1.952               -8.001              -5.943              
C              0.239               -9.066              -6.735              
N              0.694               -7.831              -6.512              
H              1.005               -10.974             -6.415              
H              2.563               -7.256              -5.657              
H              -0.659              -9.278              -7.146              
N              5.196               -10.356             -2.589              
C              6.377               -10.934             -1.878              
C              5.869               -11.783             -0.711              
O              6.504               -12.728             -0.287              
C              7.211               -9.748              -1.359              
C              6.307               -8.708              -0.681              
C              7.961               -9.096              -2.52               
C              7.142               -7.854              0.273               
H              5.019               -9.352              -2.645              
H              6.801               -11.554             -2.526              
H              7.846               -10.093             -0.676              
H              5.917               -8.131              -1.368              
H              5.622               -9.179              -0.164              
H              8.519               -8.346              -2.173              
H              8.547               -9.775              -2.958              
H              7.303               -8.745              -3.183              
H              7.856               -7.392              -0.247              
H              6.549               -7.182              0.709               
H              7.551               -8.445              0.963               
N              4.713               -11.45              -0.2                
C              4.131               -12.229             0.93                
C              2.71                -12.704             0.58                
O              2.077               -13.404             1.345               
C              4.095               -11.252             2.106               
C              4.548               -11.969             3.379               
O              3.802               -12.805             3.862               
O              5.633               -11.67              3.849               
H              4.24                -10.637             -0.615              
H              4.698               -13.046             1.038               
H              4.718               -10.52              1.92                
H              3.173               -10.948             2.229               
N              2.203               -12.332             -0.572              
C              0.828               -12.766             -0.971              
C              -0.207              -12.316             0.065               
O              -0.602              -13.074             0.927               
C              0.89                -14.294             -1.037              
C              0.498               -14.761             -2.44               
C              1.416               -15.907             -2.871              
H              2.792               -11.74              -1.168              
H              0.616               -12.316             -1.84               
H              1.81                -14.587             -0.861              
H              0.247               -14.671             -0.397              
H              -0.429              -15.092             -2.419              
H              0.611               -14.013             -3.069              
O              1.194               -17.046             -2.512              
N              2.444               -15.651             -3.633              
H              3.087               -16.358             -3.935              
H              2.598               -14.672             -3.937              
N              -0.656              -11.089             -0.019              
C              -1.676              -10.596             0.961               
C              -2.057              -9.141              0.659               
O              -1.218              -8.321              0.342               
C              -1.016              -10.689             2.347               
O              0.393               -10.837             2.213               
C              -1.586              -11.888             3.106               
H              -0.282              -10.504             -0.769              
H              -2.491              -11.168             0.865               
H              -1.202              -9.821              2.857               
H              -0.894              -12.61              3.163               
H              -1.849              -11.607             4.03                
H              -2.391              -12.239             2.625               
H              0.627               -11.783             1.958               
N              -3.318              -8.815              0.767               
C              -3.761              -7.413              0.501               
C              -3.863              -6.648              1.825               
O              -4.425              -7.133              2.787               
C              -5.138              -7.549              -0.159              
O              -5.991              -8.325              0.675               
C              -4.984              -8.23               -1.519              
H              -3.97               -9.559              1.038               
H              -3.069              -6.977              -0.069              
H              -5.548              -6.619              -0.261              
H              -5.825              -8.115              -2.05               
H              -4.219              -7.818              -2.017              
H              -4.806              -9.207              -1.388              
H              -5.798              -9.307              0.563               
N              -3.315              -5.463              1.891               
C              -3.377              -4.692              3.168               
C              -3.896              -3.269              2.931               
O              -3.724              -2.7                1.87                
C              -1.93               -4.659              3.681               
O              -1.913              -4.138              5.003               
C              -1.066              -3.774              2.772               
H              -2.859              -5.109              1.049               
H              -4.013              -5.167              3.782               
H              -1.569              -5.613              3.705               
H              -1.592              -2.971              2.491               
H              -0.25               -3.48               3.27                
H              -0.793              -4.294              1.962               
H              -1.732              -3.147              4.992               
N              -4.511              -2.686              3.924               
C              -5.02               -1.298              3.776               
C              -3.851              -0.316              3.861               
O              -3.751              0.621               3.093               
C              -5.97               -1.093              4.957               
C              -7.102              -2.069              4.883               
C              -7.443              -2.94               5.863               
C              -8.048              -2.287              3.797               
N              -8.541              -3.671              5.45                
C              -8.95               -3.307              4.183               
C              -8.211              -1.705              2.528               
C              -9.977              -3.732              3.341               
C              -9.243              -2.133              1.678               
C              -10.124             -3.144              2.085               
H              -4.618              -3.23               4.788               
H              -5.417              -1.224              2.864               
H              -5.486              -1.262              5.791               
H              -6.351              -0.192              4.91                
H              -6.988              -3.046              6.737               
H              -8.993              -4.387              6.007               
H              -7.592              -0.978              2.218               
H              -10.61              -4.464              3.644               
H              -9.338              -1.712              0.79                
H              -10.848             -3.44               1.484               
N              -2.963              -0.529              4.795               
C              -1.793              0.382               4.941               
C              -0.975              0.402               3.651               
O              -1.275              -0.292              2.7                 
C              -0.972              -0.208              6.087               
C              -1.754              -0.076              7.395               
C              -1.088              -0.929              8.476               
H              -3.115              -1.34               5.406               
H              -2.151              1.303               5.099               
H              -0.818              -1.163              5.917               
H              -0.134              0.297               6.178               
H              -1.738              0.865               7.683               
H              -2.671              -0.405              7.254               
O              -0.835              -0.459              9.568               
N              -0.791              -2.173              8.217               
H              -0.342              -2.775              8.88                
H              -1.033              -2.551              7.283               
N              0.054               1.197               3.612               
C              0.895               1.272               2.384               
C              2.29                0.695               2.662               
O              2.857               0.94                3.708               
C              0.985               2.763               2.059               
C              -0.425              3.343               1.931               
O              -1.16               3.29                2.904               
O              -0.745              3.836               0.865               
H              0.248               1.754               4.451               
H              0.461               0.683               1.703               
H              1.443               3.214               2.797               
H              1.445               2.867               1.202               
N              2.803               -0.059              1.718               
C              4.141               -0.669              1.886               
C              5.256               0.338               1.567               
O              6.419               -0.012              1.528               
C              4.141               -1.808              0.876               
C              3.156               -1.408              -0.182              
C              2.195               -0.416              0.427               
H              4.247               -1.035              2.816               
H              5.058               -1.934              0.477               
H              3.864               -2.673              1.31                
H              3.639               -0.997              -0.974              
H              2.659               -2.223              -0.524              
H              2.096               0.398               -0.153              
H              1.287               -0.826              0.565               
N              4.92                1.58                1.336               
C              5.975               2.586               1.018               
C              5.698               3.903               1.748               
O              6.196               4.946               1.373               
C              5.882               2.788               -0.493              
C              4.491               3.316               -0.847              
C              4.299               3.273               -2.363              
N              3.1                 4.124               -2.621              
C              3.154               5.428               -2.474              
N              4.261               6.02                -2.096              
N              2.09                6.145               -2.708              
H              3.926               1.813               1.384               
H              6.856               2.222               1.325               
H              6.539               3.457               -0.761              
H              6                   1.926               -0.933              
H              3.805               2.742               -0.432              
H              4.41                4.254               -0.552              
H              5.067               3.675               -2.785              
H              4.104               2.366               -2.625              
H              2.271               3.681               -2.903              
H              5.099               5.498               -1.929              
H              4.281               7.022               -1.969              
H              1.234               5.718               -3.018              
H              2.11                7.146               -2.582              
N              4.908               3.867               2.785               
C              4.604               5.124               3.528               
C              4.01                4.801               4.902               
O              4.31                5.448               5.886               
C              3.582               5.858               2.66                
C              3.246               7.208               3.297               
C              4.486               8.104               3.287               
C              4.963               8.301               1.846               
N              5.125               9.775               1.696               
H              4.522               2.958               3.05                
H              5.459               5.629               3.652               
H              3.977               6.021               1.78                
H              2.763               5.323               2.619               
H              2.53                7.645               2.771               
H              2.961               7.063               4.234               
H              4.249               8.983               3.663               
H              5.203               7.665               3.798               
H              5.825               7.861               1.732               
H              4.274               7.981               1.235               
H              6.093               9.99                1.573               
H              4.609               10.085              0.899               
H              4.781               10.23               2.516               
N              3.168               3.808               4.977               
C              2.554               3.448               6.287               
C              3.073               2.087               6.759               
O              2.31                1.196               7.075               
C              1.052               3.385               6.013               
H              2.959               3.305               4.109               
H              2.815               4.145               6.955               
H              0.566               3.223               6.87                
H              0.751               4.251               5.616               
H              0.863               2.641               5.375               
N              4.367               1.92                6.809               
C              4.934               0.617               7.261               
C              5.454               0.736               8.696               
O              5.075               1.626               9.432               
C              6.083               0.329               6.295               
C              7.112               1.458               6.375               
S              8.779               0.754               6.429               
C              9.549               1.902               5.261               
H              4.952               2.713               6.528               
H              4.193               -0.054              7.249               
H              6.525               -0.518              6.551               
H              5.733               0.287               5.371               
H              7.002               2.056               5.57                
H              6.929               2.009               7.2                 
H              10.085              2.573               5.769               
H              10.143              1.39                4.644               
H              8.835               2.364               4.738               
N              6.319               -0.154              9.1                 
C              6.862               -0.09               10.488              
C              7.767               1.135               10.646              
O              8.968               1.017               10.782              
C              7.668               -1.378              10.657              
C              7.603               -1.832              12.117              
C              6.716               -3.073              12.227              
C              9.012               -2.166              12.61               
H              6.595               -0.877              8.429               
H              6.09                -0.003              11.117              
H              7.257               -2.068              10.114              
H              8.593               -1.189              10.446              
H              7.216               -1.101              12.669              
H              7.101               -3.805              11.666              
H              6.676               -3.367              13.181              
H              5.797               -2.852              11.905              
H              9.589               -1.353              12.538              
H              8.967               -2.462              13.563              
H              9.394               -2.899              12.048              
N              7.199               2.31                10.631              
C              8.028               3.541               10.782              
C              7.134               4.748               11.077              
O              6.361               5.179               10.245              
C              8.732               3.711               9.435               
O              9.93                2.949               9.427               
H              6.182               2.337               10.513              
H              8.633               3.4                 11.565              
H              8.136               3.384               8.717               
H              8.956               4.666               9.308               
H              9.777               2.086               9.905               
N              7.234               5.297               12.257              
C              6.389               6.476               12.605              
C              7.218               7.513               13.369              
O              6.928               7.84                14.503              
C              5.276               5.918               13.492              
C              3.923               6.43                12.995              
C              3.1                 6.932               14.182              
H              7.906               4.884               12.91               
H              6.087               6.89                11.747              
H              5.275               4.938               13.431              
H              5.406               6.237               14.413              
H              4.073               7.181               12.376              
H              3.439               5.688               12.566              
O              3.33                6.536               15.307              
N              2.142               7.795               13.979              
H              1.562               8.148               14.715              
H              1.979               8.128               13.011              
N              8.247               8.032               12.757              
C              9.092               9.047               13.449              
C              8.809               10.443              12.887              
O              7.719               10.645              12.378              
C              10.533              8.631               13.153              
C              11.466              9.245               14.198              
S              11.636              8.108               15.597              
C              10.734              9.103               16.809              
O              9.688               11.285              12.976              
H              8.435               7.711               11.802              
H              8.84                9.04                14.416              
H              10.609              7.647               13.204              
H              10.796              8.967               12.261              
H              12.362              9.423               13.77               
H              11.083              10.128              14.499              
H              11.173              9.996               16.891              
H              9.791               9.216               16.502              
H              10.749              8.636               17.691              
H              -1.82352            -2.95764            -1.36111            
