215
6.xyz
S              25.217              -5.128              15.871              
C              29.2                -5.9                14.612              
C              29.796              -6.941              13.661              
O              30.333              -6.605              12.604              
C              27.706              -5.705              14.323              
S              26.93               -4.291              15.176              
H              29.291              -6.254              15.555              
H              27.594              -5.571              13.339              
H              27.224              -6.536              14.603              
N              29.697              -8.206              14.057              
C              30.243              -9.31               13.272              
C              29.428              -10.576             13.486              
O              28.696              -10.7               14.48               
C              31.688              -9.637              13.707              
C              32.742              -8.581              13.438              
C              34.158              -9.165              13.457              
O              34.587              -9.664              14.513              
O              34.838              -9.127              12.414              
H              29.203              -8.34               14.963              
H              30.236              -9.066              12.296              
H              31.667              -9.802              14.689              
H              31.958              -10.465             13.226              
H              32.594              -8.21               12.545              
H              32.699              -7.905              14.145              
N              29.583              -11.51              12.548              
C              28.947              -12.805             12.65               
C              27.486              -12.997             12.331              
O              26.816              -12.112             11.799              
H              30.192              -11.225             11.753              
H              29.505              -13.489             12.067              
H              29.124              -13.18              13.623              
N              27.022              -14.2               12.663              
C              25.643              -14.636             12.457              
C              25.194              -15.469             13.666              
O              25.605              -16.626             13.819              
C              25.547              -15.48              11.189              
C              24.134              -15.558             10.658              
H              27.752              -14.828             13.098              
H              25.07               -13.819             12.441              
H              26.128              -15.069             10.492              
H              25.861              -16.401             11.4                
O              23.195              -15.149             11.339              
N              23.974              -16.075             9.437               
H              24.78               -16.391             8.931               
H              23.067              -16.145             9.037               
N              24.31               -14.909             14.509              
C              23.741              -13.57              14.337              
C              24.735              -12.408             14.361              
O              25.781              -12.474             15.003              
C              22.696              -13.464             15.459              
C              22.6                -14.83              16.06               
C              23.878              -15.521             15.776              
H              23.177              -13.534             13.476              
H              22.987              -12.788             16.148              
H              21.807              -13.171             15.086              
H              22.432              -14.758             17.058              
H              21.813              -15.329             15.66               
H              24.562              -15.358             16.49               
H              23.755              -16.51              15.659              
N              24.37               -11.352             13.642              
C              25.142              -10.112             13.508              
C              24.917              -9.269              14.764              
O              23.941              -8.523              14.862              
C              24.648              -9.353              12.271              
C              25.64               -8.368              11.715              
C              26.927              -8.775              11.355              
C              25.287              -7.035              11.52               
C              27.848              -7.871              10.808              
C              26.199              -6.122              10.973              
C              27.48               -6.556              10.621              
O              28.386              -5.67               10.081              
H              23.437              -11.482             13.152              
H              26.108              -10.347             13.46               
H              24.436              -10.023             11.562              
H              23.819              -8.857              12.524              
H              27.201              -9.727              11.488              
H              24.377              -6.722              11.769              
H              28.763              -8.187              10.557              
H              25.937              -5.173              10.837              
H              28.717              -5.062              10.8                
N              25.841              -9.382              15.713              
C              25.742              -8.704              17.002              
C              26.973              -7.858              17.334              
O              28.014              -8.01               16.714              
C              25.538              -9.759              18.102              
C              24.187              -10.451             17.896              
C              26.687              -10.791             18.041              
H              26.647              -10                 15.457              
H              24.94               -8.082              16.969              
H              25.488              -9.288              18.971              
H              24.336              -11.347             17.481              
H              23.735              -10.56              18.779              
H              23.619              -9.892              17.295              
H              27.21               -10.735             18.887              
H              26.293              -11.7               17.938              
H              27.267              -10.575             17.261              
N              26.857              -6.944              18.318              
C              27.996              -6.091              18.693              
C              29.17               -6.858              19.306              
O              28.989              -7.714              20.179              
C              27.38               -5.067              19.664              
C              25.849              -5.162              19.431              
C              25.652              -6.62               19.114              
H              28.308              -5.546              17.891              
H              27.588              -5.296              20.612              
H              27.692              -4.142              19.462              
H              25.377              -4.897              20.258              
H              25.6                -4.582              18.671              
H              25.622              -7.175              19.941              
H              24.827              -6.77               18.574              
N              30.372              -6.563              18.818              
C              31.573              -7.226              19.313              
C              32.615              -6.203              19.733              
O              33.612              -6.548              20.36               
C              32.192              -8.177              18.245              
C              31.232              -9.298              17.934              
C              32.542              -7.412              16.966              
H              30.379              -5.841              18.076              
H              31.321              -7.766              20.124              
H              33.004              -8.579              18.649              
H              30.295              -9.012              18.143              
H              31.292              -9.538              16.963              
H              31.459              -10.104             18.485              
H              33.318              -7.857              16.522              
H              31.752              -7.419              16.356              
H              32.78               -6.472              17.204              
N              32.359              -4.937              19.417              
C              33.292              -3.876              19.743              
C              32.575              -2.521              19.905              
O              31.634              -2.211              19.143              
C              34.359              -3.832              18.615              
C              35.113              -2.54               18.506              
H              31.456              -4.784              18.93               
H              33.739              -4.092              20.621              
H              35.021              -4.577              18.775              
H              33.897              -4.008              17.736              
N              36.216              -2.253              19.279              
C              34.94               -1.473              17.689              
C              36.691              -1.063              18.945              
N              35.935              -0.568              17.981              
H              34.225              -1.361              17.004              
H              37.482              -0.617              19.352              
H              36.064              0.318               17.535              
N              32.998              -1.739              20.912              
C              32.455              -0.386              21.132              
C              33.437              0.58                20.491              
O              34.555              0.755               20.98               
C              32.346              -0.031              22.612              
C              31.625              1.282               22.862              
C              30.266              1.29                23.204              
C              32.295              2.5                 22.725              
C              29.589              2.486               23.402              
C              31.627              3.711               22.923              
C              30.271              3.704               23.262              
H              33.728              -2.163              21.512              
H              31.612              -0.331              20.617              
H              31.835              -0.742              23.063              
H              33.257              0.055               22.976              
H              29.782              0.428               23.307              
H              33.263              2.506               22.483              
H              28.615              2.479               23.643              
H              32.124              4.581               22.819              
H              29.784              4.561               23.406              
N              33.021              1.217               19.407              
C              33.914              2.117               18.708              
C              33.946              3.541               19.218              
O              35.03               4.111               19.445              
C              33.588              2.119               17.218              
C              34.828              2.339               16.352              
O              35.855              1.663               16.594              
O              34.773              3.183               15.44               
H              32.051              1.022               19.122              
H              34.864              1.74                18.816              
H              33.194              1.24                16.984              
H              32.947              2.853               17.039              
N              32.769              4.125               19.409              
C              32.719              5.5                 19.868              
C              31.32               5.938               20.277              
O              30.348              5.221               20.061              
C              33.246              6.421               18.752              
H              31.946              3.546               19.213              
H              33.333              5.599               20.672              
H              33.46               5.87                17.95               
H              32.544              7.092               18.525              
H              34.067              6.885               19.074              
N              31.244              7.117               20.889              
C              29.969              7.709               21.284              
C              30.052              9.125               20.707              
O              31.124              9.718               20.678              
C              29.806              7.71                22.816              
O              30.253              8.913               23.41               
H              32.164              7.576               21.06               
H              29.25               7.237               20.821              
H              28.837              7.579               23.03               
H              30.333              6.945               23.189              
H              30.022              9.685               22.818              
N              28.934              9.653               20.216              
C              28.938              10.973              19.605              
C              27.73               11.811              19.992              
O              26.782              11.241              20.567              
C              28.964              10.865              18.055              
C              30.337              10.415              17.592              
C              27.875              9.88                17.565              
O              27.75               13.023              19.684              
H              28.092              9.06                20.305              
H              29.77               11.463              19.92               
H              28.813              11.776              17.693              
H              30.816              11.183              17.165              
H              30.867              10.09               18.376              
H              30.241              9.673               16.927              
H              28.317              9.035               17.28               
H              27.245              9.705               18.316              
H              27.394              10.295              16.798              
H              29.7022             -4.96757            14.556              
H              24.3168             -4.95218            14.8484             
