304
1.xyz
C              26.185              5.927               40.337              
O              25.481              6.897               40.639              
N              27.414              5.754               40.821              
C              27.999              6.723               41.746              
C              29.336              7.231               41.213              
O              29.782              6.826               40.134              
C              28.17               6.098               43.142              
O              29.53               5.87                43.477              
H              27.9                4.904               40.496              
H              27.375              7.507               41.812              
H              27.768              6.717               43.818              
H              27.68               5.225               43.16               
H              29.718              4.889               43.454              
N              29.962              8.128               41.97               
C              31.243              8.689               41.587              
C              32.27               7.569               41.522              
O              33.309              7.698               40.874              
C              31.672              9.745               42.604              
O              32.422              10.761              41.967              
H              29.458              8.384               42.844              
H              31.156              9.08                40.671              
H              30.861              10.146              43.012              
H              32.235              9.312               43.298              
H              33.087              10.347              41.346              
N              31.967              6.457               42.18               
C              32.881              5.321               42.191              
C              32.362              4.14                41.363              
O              32.811              3.006               41.536              
C              33.148              4.885               43.642              
C              34.635              5.014               44.041              
H              31.056              6.467               42.668              
H              33.743              5.625               41.757              
H              32.616              5.461               44.25               
H              32.884              3.933               43.741              
O              35.347              4.007               44.186              
N              35.101              6.257               44.225              
H              34.478              7.032               44.105              
H              36.05               6.402               44.477              
N              31.428              4.42                40.451              
C              30.845              3.384               39.584              
C              31.907              2.735               38.717              
O              31.98               1.515               38.639              
C              29.741              3.979               38.696              
C              29.227              3.068               37.575              
C              28.222              2.12                37.811              
C              29.722              3.184               36.264              
C              27.72               1.315               36.775              
C              29.224              2.378               35.219              
C              28.224              1.448               35.484              
O              27.747              0.649               34.464              
H              31.15               5.42                40.405              
H              30.44               2.677               40.176              
H              28.961              4.214               39.279              
H              30.096              4.813               38.27               
H              27.853              2.011               38.733              
H              30.436              3.846               36.066              
H              27                  0.649               36.969              
H              29.591              2.479               34.3                
H              26.964              0.128               34.798              
N              32.745              3.551               38.085              
C              33.786              3.016               37.223              
C              34.82               2.193               37.982              
O              35.262              1.138               37.506              
C              34.449              4.145               36.458              
S              33.406              4.751               35.085              
H              32.595              4.557               38.256              
H              33.349              2.41                36.536              
H              34.605              4.902               37.072              
H              35.295              3.816               36.068              
N              35.205              2.658               39.167              
H              34.783              3.547               39.455              
C              19.542              6.556               15.705              
C              19.146              7.404               16.895              
O              19.09               8.623               16.809              
C              18.303              6.042               14.979              
C              18.632              5.514               13.603              
C              19.272              6.325               12.669              
C              18.316              4.207               13.241              
C              19.589              5.851               11.404              
C              18.626              3.718               11.981              
C              19.264              4.549               11.066              
O              19.567              4.087               9.805               
H              20.083              7.124               15.076              
H              17.91               5.305               15.511              
H              17.664              6.791               14.88               
H              19.508              7.268               12.913              
H              17.86               3.613               13.901              
H              20.049              6.445               10.744              
H              18.395              2.782               11.73               
H              20.265              3.376               9.876               
N              18.873              6.752               18.015              
C              18.52               7.483               19.225              
C              19.712              7.541               20.19               
O              20.666              6.756               20.094              
C              17.329              6.823               19.913              
O              17.774              5.805               20.778              
H              18.93               5.725               17.958              
H              18.291              8.427               18.968              
H              16.841              7.51                20.438              
H              16.738              6.429               19.219              
H              18.239              6.211               21.566              
N              19.678              8.498               21.107              
C              20.746              8.588               22.069              
C              20.442              7.52                23.113              
O              19.294              7.091               23.272              
C              20.804              9.96                22.736              
O              19.628              10.151              23.523              
C              20.911              11.048              21.701              
H              18.869              9.126               21.066              
H              21.602              8.359               21.632              
H              21.612              9.994               23.359              
H              20.287              11.804              21.925              
H              21.85               11.405              21.667              
H              20.67               10.69               20.793              
H              19.872              10.42               24.461              
N              21.491              7.069               23.791              
C              21.368              6.047               24.805              
C              22.076              6.53                26.048              
O              22.958              7.387               25.976              
C              21.993              4.747               24.315              
C              21.216              4.115               23.186              
S              21.996              2.61                22.696              
C              20.807              1.954               21.509              
H              22.398              7.514               23.527              
H              20.4                5.93                25.022              
H              22.929              4.933               23.998              
H              22.036              4.096               25.08               
H              20.261              3.956               23.499              
H              21.165              4.778               22.415              
H              20.082              2.626               21.363              
H              21.272              1.768               20.645              
H              20.415              1.108               21.868              
N              21.667              5.993               27.192              
C              22.277              6.376               28.454              
C              23.583              5.602               28.541              
O              23.593              4.369               28.408              
C              21.363              6.015               29.631              
O              22.084              5.948               30.846              
H              20.903              5.303               27.106              
H              22.494              7.34                28.418              
H              20.654              6.712               29.71               
H              20.947              5.127               29.45               
H              21.454              5.761               31.599              
N              24.68               6.33                28.732              
C              25.989              5.694               28.833              
C              26.827              6.223               29.975              
O              26.595              7.305               30.498              
C              26.819              5.876               27.539              
C              27.142              7.368               27.33               
C              26.064              5.256               26.349              
C              28.144              7.637               26.237              
H              24.527              7.348               28.8                
H              25.81               4.715               29.029              
H              27.675              5.392               27.654              
H              26.287              7.843               27.119              
H              27.497              7.728               28.194              
H              26.625              5.338               25.53               
H              25.885              4.296               26.543              
H              25.204              5.742               26.221              
H              27.792              7.289               25.368              
H              28.301              8.622               26.162              
H              29.006              7.179               26.454              
N              27.811              5.43                30.366              
C              28.723              5.842               31.406              
C              30.13               5.599               30.865              
O              30.496              4.465               30.513              
C              28.516              5.047               32.707              
O              27.197              5.3                 33.219              
C              29.571              5.457               33.749              
H              27.864              4.52                29.874              
H              28.617              6.814               31.569              
H              28.589              4.051               32.501              
H              30.419              4.956               33.577              
H              29.742              6.439               33.679              
H              29.234              5.241               34.665              
H              27.253              5.743               34.119              
N              30.898              6.684               30.766              
C              32.265              6.608               30.286              
C              33.204              6.429               31.469              
O              33.06               7.096               32.493              
C              32.652              7.885               29.537              
C              32.257              7.853               28.071              
O              32.233              6.749               27.475              
O              31.979              8.946               27.518              
H              30.437              7.568               31.058              
H              32.341              5.783               29.723              
H              32.191              8.65                29.975              
H              33.638              7.992               29.6                
N              34.158              5.517               31.32               
C              35.152              5.266               32.354              
C              36.552              5.598               31.8                
O              37.047              4.912               30.89               
C              35.104              3.799               32.792              
S              33.595              3.307               33.688              
H              34.133              5.006               30.414              
H              34.977              5.878               33.123              
H              35.179              3.227               31.975              
H              35.888              3.627               33.39               
N              37.172              6.655               32.333              
C              38.517              7.051               31.9                
C              39.517              6.979               33.048              
O              39.29               7.536               34.122              
C              38.537              8.471               31.338              
C              39.959              8.919               30.945              
C              40.074              10.432              30.794              
N              38.848              11.125              31.199              
C              38.108              11.879              30.388              
N              38.474              12.038              29.122              
N              37.007              12.474              30.839              
H              36.634              7.157               33.059              
H              38.817              6.424               31.17               
H              37.98               8.499               30.526              
H              38.209              9.091               32.03               
H              40.599              8.624               31.652              
H              40.202              8.498               30.073              
H              40.83               10.743              31.364              
H              40.263              10.632              29.836              
H              38.546              11.024              32.154              
H              39.282              11.59               28.754              
H              37.919              12.627              28.517              
H              36.731              12.331              31.794              
H              36.464              13.051              30.239              
N              40.636              6.31                32.807              
C              41.658              6.164               33.837              
C              42.278              7.49                34.284              
O              42.717              8.297               33.446              
C              42.754              5.228               33.346              
C              43.5                4.555               34.477              
C              44.871              4.064               34.054              
O              45.32               4.471               32.954              
O              45.486              3.28                34.817              
H              40.718              5.914               31.856              
H              41.257              5.695               34.648              
H              42.331              4.527               32.807              
H              43.399              5.761               32.836              
H              43.63               5.21                35.198              
H              42.984              3.772               34.77               
N              42.292              7.715               35.602              
C              42.874              8.936               36.161              
C              44.394              8.884               35.95               
O              44.958              7.82                35.682              
C              42.594              9.087               37.706              
O              43.193              8                   38.427              
C              41.108              9.104               37.995              
H              41.865              6.968               36.176              
H              42.517              9.719               35.662              
H              43.02               9.958               38.018              
H              40.949              9.04                38.984              
H              40.701              9.957               37.655              
H              40.661              8.327               37.543              
H              42.771              7.128               38.157              
N              45.053              10.032              36.032              
C              46.498              10.027              35.892              
C              47.038              9.455               37.197              
O              48.052              8.75                37.238              
H              44.485              10.866              36.193              
H              46.765              9.445               35.142              
H              46.831              10.948              35.773              
N              46.328              9.767               38.277              
C              46.681              9.299               39.599              
C              46.552              7.779               39.666              
O              47.112              7.153               40.567              
C              45.757              9.937               40.639              
O              46.189              9.642               41.958              
H              45.5                10.376              38.084              
H              47.642              9.531               39.774              
H              45.761              10.924              40.51               
H              44.836              9.579               40.512              
H              45.894              8.72                42.206              
N              45.821              7.187               38.716              
C              45.615              5.735               38.681              
C              46.911              4.935               38.676              
O              47.876              5.289               38.011              
C              44.794              5.327               37.473              
O              44.636              3.922               37.476              
H              45.416              7.837               38.013              
H              45.093              5.478               39.514              
H              43.903              5.753               37.526              
H              45.272              5.597               36.65               
H              45.408              3.499               37.951              
N              46.882              3.813               39.378              
C              48.045              2.966               39.556              
C              48.755              3.425               40.831              
C              47.852              3.488               42.11               
C              46.408              3.959               41.863              
C              46.117              5.292               42.538              
N              45.086              6.083               41.81               
H              45.945              3.591               39.794              
H              48.685              3.113               38.77               
H              49.502              2.793               41.031              
H              49.121              4.343               40.684              
H              47.829              2.566               42.518              
H              48.291              4.112               42.769              
H              46.274              4.06                40.882              
H              45.786              3.273               42.227              
H              45.797              5.118               43.475              
H              46.968              5.825               42.585              
H              45.532              6.818               41.3                
H              44.596              5.485               41.177              
H              44.443              6.474               42.468              
H              20.1461             5.74149             16.0194             
H              35.8718             2.1369              39.7159             
H              47.8317             1.88666             39.6221             
H              25.8165             5.19411             39.6593             
