283
0.xyz
N              37.594              -20.231             27.869              
C              37.771              -19.049             26.97               
C              36.531              -18.169             27.151              
O              35.739              -18.406             28.083              
C              37.901              -19.502             25.508              
C              39.06               -20.437             25.215              
C              39.118              -20.833             23.757              
C              40.265              -21.764             23.444              
N              40.279              -22.124             22.005              
H              38.341              -20.872             27.713              
H              38.57               -18.552             27.264              
H              37.048              -19.966             25.252              
H              38.005              -18.68              24.94               
H              39.919              -19.978             25.463              
H              38.962              -21.264             25.775              
H              38.259              -21.29              23.513              
H              39.217              -20.005             23.2                
H              41.128              -21.313             23.679              
H              40.17               -22.598             23.991              
H              39.781              -22.981             21.87               
H              39.84               -21.397             21.475              
H              41.224              -22.235             21.697              
H              37.603              -19.923             28.816              
H              36.723              -20.668             27.663              
N              36.357              -17.189             26.26               
C              35.222              -16.261             26.297              
C              35.053              -15.809             24.85               
O              36.047              -15.495             24.2                
C              35.572              -15.052             27.181              
C              34.414              -14.121             27.503              
C              34.771              -13.004             28.499              
O              35.834              -12.349             28.338              
O              33.952              -12.781             29.425              
H              37.105              -17.139             25.528              
H              34.415              -16.729             26.598              
H              35.922              -15.403             28.037              
H              36.258              -14.524             26.703              
H              34.124              -13.682             26.67               
H              33.689              -14.649             27.912              
N              33.835              -15.842             24.315              
C              33.632              -15.387             22.93               
C              33.678              -13.877             22.907              
O              33.469              -13.226             23.945              
C              32.272              -15.772             22.367              
O              31.254              -15.155             23.151              
C              32.084              -17.279             22.364              
H              33.088              -16.193             24.918              
H              34.379              -15.743             22.373              
H              32.194              -15.422             21.412              
H              32.92               -17.727             22.037              
H              31.883              -17.6               23.293              
H              31.322              -17.527             21.76               
H              30.352              -15.279             22.72               
N              33.869              -13.333             21.707              
C              33.92               -11.886             21.477              
C              32.646              -11.257             21.99               
O              32.664              -10.243             22.67               
C              34.063              -11.597             19.982              
H              33.981              -14.031             20.933              
H              34.698              -11.511             21.982              
H              33.248              -11.919             19.504              
H              34.166              -10.614             19.844              
H              34.868              -12.071             19.629              
N              31.536              -11.906             21.686              
C              30.244              -11.408             22.095              
C              30.063              -11.395             23.606              
O              29.454              -10.453             24.124              
C              29.164              -12.219             21.439              
H              31.674              -12.78              21.143              
H              30.134              -10.456             21.753              
H              29.106              -11.991             20.464              
H              29.363              -13.198             21.532              
H              28.279              -12.026             21.87               
N              30.551              -12.431             24.314              
C              30.42               -12.503             25.78               
C              31.333              -11.481             26.452              
O              31.067              -10.953             27.553              
C              30.77               -13.897             26.267              
H              31.018              -13.16              23.747              
H              29.468              -12.297             26.025              
H              31.554              -14.246             25.753              
H              31.001              -13.865             27.24               
H              29.988              -14.507             26.132              
N              32.464              -11.242             25.814              
C              33.401              -10.272             26.335              
C              32.782              -8.873              26.227              
O              32.926              -8.042              27.132              
C              34.658              -10.333             25.515              
C              35.789              -9.468              25.979              
C              36.95               -9.868              25.121              
C              38.226              -9.16               25.471              
N              39.323              -9.825              24.683              
H              32.611              -11.786             24.95               
H              33.579              -10.464             27.3                
H              34.98               -11.292             25.498              
H              34.429              -10.072             24.564              
H              35.573              -8.528              25.818              
H              35.992              -9.662              26.915              
H              37.099              -10.861             25.214              
H              36.729              -9.671              24.158              
H              38.172              -8.215              25.203              
H              38.418              -9.264              26.43               
H              39.65               -9.191              23.986              
H              40.066              -10.064             25.303              
H              38.959              -10.647             24.253              
N              32.076              -8.621              25.137              
C              31.439              -7.33               24.981              
C              30.401              -7.083              26.083              
O              30.36               -5.995              26.677              
C              30.822              -7.172              23.587              
C              30.086              -5.877              23.404              
C              28.743              -5.766              23.811              
C              30.749              -4.755              22.863              
C              28.062              -4.555              23.69               
C              30.09               -3.535              22.731              
C              28.725              -3.433              23.147              
H              32.025              -9.383              24.451              
H              32.151              -6.627              25.099              
H              31.556              -7.205              22.928              
H              30.181              -7.911              23.456              
H              28.279              -6.556              24.188              
H              31.698              -4.844              22.576              
H              27.11               -4.481              23.984              
H              30.554              -2.736              22.351              
H              28.248              -2.57               23.052              
N              29.556              -8.075              26.351              
C              28.564              -7.97               27.401              
C              29.265              -7.757              28.743              
O              28.866              -6.885              29.522              
C              27.718              -9.232              27.463              
C              27.118              -9.593              26.129              
C              26.133              -10.745             26.204              
O              25.521              -10.923             27.301              
O              25.963              -11.437             25.16               
H              29.672              -8.916              25.748              
H              27.952              -7.198              27.222              
H              28.3                -9.97               27.742              
H              26.983              -9.071              28.091              
H              26.628              -8.81               25.782              
H              27.844              -9.867              25.52               
N              30.347              -8.501              28.978              
C              31.072              -8.378              30.24               
C              31.632              -6.99               30.481              
O              31.545              -6.445              31.576              
C              32.236              -9.379              30.316              
C              33.077              -9.131              31.578              
C              34.076              -10.225             31.863              
N              35.056              -10.373             30.805              
C              36.122              -9.612              30.667              
N              36.351              -8.626              31.513              
N              36.993              -9.908              29.732              
H              30.614              -9.144              28.22               
H              30.435              -8.609              31                  
H              31.866              -10.283             30.371              
H              32.813              -9.247              29.537              
H              33.574              -8.264              31.469              
H              32.459              -9.05               32.366              
H              34.544              -10.005             32.72               
H              33.574              -11.085             31.972              
H              34.911              -11.11              30.128              
H              35.74               -8.447              32.282              
H              37.162              -8.036              31.386              
H              36.871              -10.707             29.141              
H              37.807              -9.326              29.597              
N              32.289              -6.467              29.468              
C              32.92               -5.176              29.56               
C              32.018              -3.942              29.409              
O              32.315              -2.883              29.952              
C              33.958              -5.1                28.471              
C              34.992              -6.19               28.468              
C              36.079              -5.756              27.553              
H              32.311              -7.06               28.609              
H              33.369              -5.105              30.487              
H              33.489              -5.112              27.571              
H              34.442              -4.21               28.543              
H              35.351              -6.295              29.376              
H              34.586              -7.017              28.127              
O              37.145              -5.38               28.009              
N              35.769              -5.645              26.258              
H              36.457              -5.34               25.573              
H              34.82               -5.875              25.963              
N              30.924              -4.072              28.669              
C              30.109              -2.893              28.402              
C              28.632              -2.892              28.76               
O              27.991              -1.863              28.616              
C              30.227              -2.503              26.912              
C              31.636              -2.337              26.427              
H              30.719              -5.01               28.327              
H              30.554              -2.087              28.899              
H              29.781              -3.215              26.357              
H              29.737              -1.635              26.768              
N              32.421              -1.265              26.78               
C              32.389              -3.097              25.609              
C              33.596              -1.368              26.198              
N              33.601              -2.475              25.483              
H              32.137              -0.52               27.389              
H              32.116              -3.953              25.174              
H              34.35               -0.724              26.28               
N              28.066              -4.016              29.159              
C              26.646              -4.01               29.46               
C              26.355              -3.883              30.946              
O              26.994              -4.517              31.755              
C              25.957              -5.278              28.916              
C              25.831              -5.385              27.404              
S              24.941              -4.014              26.603              
C              23.463              -3.945              27.489              
H              28.674              -4.831              29.231              
H              26.227              -3.212              28.991              
H              26.469              -6.091              29.253              
H              25.024              -5.334              29.32               
H              26.782              -5.476              27.004              
H              25.376              -6.288              27.178              
H              22.785              -4.604              27.127              
H              23.608              -4.164              28.467              
H              23.047              -3.023              27.442              
N              25.484              -2.954              31.287              
C              25.017              -2.801              32.648              
C              23.541              -2.366              32.638              
O              23.198              -1.209              32.911              
C              25.862              -1.869              33.504              
C              25.313              -1.779              34.946              
O              24.62               -2.731              35.338              
O              25.521              -0.779              35.675              
H              25.165              -2.346              30.5                
H              25.046              -3.701              33.085              
H              26.78               -2.224              33.55               
H              25.837              -0.966              33.112              
N              22.663              -3.319              32.365              
C              21.237              -3.05               32.329              
C              20.564              -2.962              33.709              
O              19.404              -2.596              33.785              
C              20.529              -4.137              31.506              
O              21.204              -4.423              30.276              
H              23.076              -4.255              32.183              
H              21.094              -2.151              31.866              
H              20.487              -4.975              32.048              
H              19.602              -3.828              31.296              
H              20.995              -3.707              29.615              
N              21.255              -3.324              34.788              
C              20.644              -3.264              36.133              
C              20.448              -1.84               36.665              
O              19.776              -1.633              37.675              
C              21.449              -4.096              37.141              
O              21.951              -5.286              36.523              
H              22.218              -3.639              34.616              
H              19.729              -3.702              36.073              
H              22.215              -3.557              37.465              
H              20.855              -4.353              37.892              
H              21.931              -5.172              35.533              
N              21.095              -0.863              36.039              
C              20.948              0.534               36.443              
C              20.742              1.344               35.179              
O              21.3                1.034               34.128              
C              22.181              1.071               37.212              
O              23.332              1.089               36.354              
C              22.465              0.184               38.428              
H              21.701              -1.17               35.255              
H              20.138              0.616               37.011              
H              21.988              2.03                37.507              
H              21.994              -0.693              38.32               
H              23.45               0.025               38.504              
H              22.137              0.638               39.258              
H              23.172              0.515               35.545              
N              19.92               2.373               35.277              
C              19.646              3.192               34.119              
C              20.576              4.387               34.016              
O              20.638              5.019               32.967              
C              18.186              3.631               34.126              
O              17.839              4.197               35.38               
H              19.512              2.53                36.21               
H              19.781              2.623               33.289              
H              18.05               4.313               33.415              
H              17.609              2.838               33.96               
H              18.671              4.431               35.881              
N              21.284              4.7                 35.102              
C              22.23               5.818               35.11               
C              21.543              7.11                35.572              
H              21.11               4.094               35.926              
H              22.563              5.966               34.174              
H              20.855              6.888               36.259              
H              22.226              7.722               35.965              
H              21.108              7.548               34.788              
H              23.0889             5.58892             35.7549             
