308
0.xyz
N              2.398               -14.288             13.638              
C              2.574               -15.72              13.262              
C              2.767               -15.851             11.749              
O              1.829               -16.083             11.011              
C              1.281               -16.407             13.7                
C              1.58                -17.828             14.114              
C              2.103               -18.733             13.183              
C              1.334               -18.24              15.429              
C              2.381               -20.05              13.566              
C              1.612               -19.558             15.813              
C              2.135               -20.463             14.882              
H              1.589               -14.198             14.213              
H              3.424               -16.021             13.694              
H              0.932               -15.934             14.473              
H              0.679               -16.435             12.939              
H              2.279               -18.446             12.255              
H              0.964               -17.6               16.089              
H              2.755               -20.694             12.894              
H              1.432               -19.85              16.762              
H              2.334               -21.401             15.151              
H              3.203               -13.98              14.138              
H              2.286               -13.744             12.81               
N              3.976               -15.703             11.28               
C              4.228               -15.819             9.815               
C              3.296               -14.88              9.042               
O              2.542               -14.124             9.62                
C              3.922               -17.277             9.473               
C              5.097               -17.876             8.696               
C              4.581               -18.966             7.753               
O              3.523               -19.506             8.027               
O              5.254               -19.24              6.773               
H              4.72                -15.508             11.957              
H              5.181               -15.581             9.628               
H              3.837               -17.768             10.299              
H              3.15                -17.296             8.896               
H              5.49                -17.18              8.152               
H              5.7                 -18.295             9.325               
N              3.343               -14.924             7.739               
C              2.461               -14.035             6.93                
C              1.342               -14.854             6.273               
O              1.553               -15.987             5.888               
C              3.379               -13.431             5.867               
C              4.439               -12.56              6.544               
C              2.554               -12.571             4.906               
C              3.754               -11.43              7.316               
H              4.002               -15.586             7.317               
H              2.024               -13.42              7.584               
H              3.845               -14.172             5.4                 
H              4.95                -13.109             7.172               
H              5.011               -12.165             5.854               
H              3.157               -12.179             4.215               
H              1.864               -13.14              4.465               
H              2.11                -11.84              5.418               
H              3.154               -11.827             8.005               
H              4.451               -10.869             7.753               
H              3.223               -10.879             6.678               
N              0.18                -14.255             6.165               
C              -0.974              -14.951             5.546               
C              -0.772              -15.079             4.034               
O              0.187               -14.577             3.482               
C              -2.158              -14.041             5.862               
C              -1.559              -12.684             6.057               
C              -0.169              -12.892             6.601               
H              -1.109              -15.849             5.968               
H              -2.816              -14.035             5.102               
H              -2.63               -14.346             6.694               
H              -1.528              -12.183             5.18                
H              -2.118              -12.142             6.702               
H              0.475               -12.226             6.221               
H              -0.155              -12.828             7.602               
N              -1.667              -15.748             3.359               
C              -1.523              -15.907             1.884               
C              -2.85               -15.604             1.185               
O              -3.442              -16.46              0.556               
C              -1.131              -17.371             1.681               
C              -0.358              -17.515             0.369               
O              -0.957              -17.318             -0.675              
O              0.822               -17.821             0.43                
H              -2.45               -16.145             3.887               
H              -0.863              -15.216             1.586               
H              -0.547              -17.641             2.419               
H              -1.948              -17.906             1.624               
N              -3.323              -14.392             1.287               
C              -4.612              -14.037             0.627               
C              -4.433              -12.789             -0.245              
O              -4.238              -12.879             -1.44               
C              -5.584              -13.762             1.774               
C              -6.591              -14.91              1.877               
O              -6.263              -16                 1.435               
O              -7.671              -14.681             2.396               
H              -2.774              -13.719             1.83                
H              -4.84               -14.796             0.018               
H              -5.075              -13.718             2.609               
H              -6.07               -12.936             1.578               
N              -4.499              -11.625             0.343               
C              -4.334              -10.377             -0.455              
C              -3.542              -9.337              0.349               
O              -3.725              -9.214              1.543               
C              -5.758              -9.885              -0.713              
C              -6.49               -9.717              0.621               
C              -5.71               -8.54               -1.44               
H              -4.666              -11.62              1.354               
H              -3.807              -10.608             -1.272              
H              -6.242              -10.589             -1.216              
H              -7.467              -9.603              0.449               
H              -6.34               -10.528             1.183               
H              -6.135              -8.911              1.092               
H              -5.142              -7.907              -0.917              
H              -5.32               -8.674              -2.349              
H              -6.637              -8.179              -1.519              
N              -2.682              -8.614              -0.332              
C              -1.866              -7.578              0.347               
C              -2.734              -6.368              0.705               
O              -2.759              -5.922              1.836               
C              -0.818              -7.204              -0.696              
C              -1.442              -7.543              -2.013              
C              -2.392              -8.688              -1.772              
H              -1.425              -7.957              1.162               
H              -0.599              -6.224              -0.647              
H              0.028               -7.728              -0.556              
H              -1.935              -6.742              -2.386              
H              -0.73               -7.804              -2.683              
H              -3.233              -8.583              -2.307              
H              -1.968              -9.569              -2.002              
N              -3.445              -5.834              -0.25               
C              -4.312              -4.653              0.034               
C              -5.764              -4.96               -0.361              
O              -6.004              -5.716              -1.281              
C              -3.74               -3.528              -0.828              
C              -2.291              -3.255              -0.414              
C              -1.339              -3.95               -1.389              
C              -2.027              -1.749              -0.432              
H              -3.376              -6.26               -1.179              
H              -4.278              -4.474              1.015               
H              -3.732              -3.824              -1.751              
H              -4.252              -2.724              -0.661              
H              -2.141              -3.612              0.502               
H              -1.494              -3.597              -2.311              
H              -0.395              -3.769              -1.115              
H              -1.51               -4.934              -1.373              
H              -2.647              -1.297              0.208               
H              -1.081              -1.576              -0.161              
H              -2.182              -1.397              -1.355              
N              -6.691              -4.367              0.355               
C              -8.13               -4.595              0.066               
C              -8.543              -3.898              -1.234              
O              -7.714              -3.528              -2.042              
C              -8.84               -3.978              1.267               
C              -7.887              -2.955              1.798               
C              -6.496              -3.441              1.481               
H              -8.327              -5.578              0.025               
H              -9.706              -3.549              0.988               
H              -9.039              -4.676              1.962               
H              -8.058              -2.056              1.367               
H              -8.009              -2.845              2.796               
H              -5.897              -2.683              1.214               
H              -6.089              -3.918              2.264               
N              -9.82               -3.722              -1.442              
C              -10.289             -3.055              -2.692              
C              -10.012             -1.55               -2.629              
O              -9.707              -1.008              -1.587              
C              -11.794             -3.322              -2.741              
H              -10.462             -4.059              -0.718              
H              -9.784              -3.447              -3.462              
H              -12.286             -2.458              -2.652              
H              -12.025             -3.751              -3.612              
H              -12.046             -3.93               -1.99               
N              -10.119             -0.873              -3.741              
C              -9.86               0.595               -3.747              
C              -8.374              0.863               -3.482              
O              -7.982              1.969               -3.171              
H              -10.383             -1.394              -4.582              
H              -10.114             0.965               -4.638              
H              -10.411             1.024               -3.034              
N              -7.543              -0.14               -3.597              
C              -6.088              0.065               -3.345              
C              -5.282              -0.19               -4.621              
O              -5.582              -1.087              -5.383              
C              -5.734              -0.966              -2.28               
C              -5.866              -0.342              -0.935              
C              -6.963              -0.411              -0.149              
C              -4.889              0.45                -0.21               
N              -6.719              0.289               1.02                
C              -5.449              0.837               1.028               
C              -3.581              0.862               -0.507              
C              -4.73               1.61                1.942               
C              -2.857              1.638               0.407               
C              -3.428              2.011               1.627               
H              -7.939              -1.046              -3.862              
H              -5.966              1.025               -3.091              
H              -6.367              -1.708              -2.329              
H              -4.803              -1.238              -2.394              
H              -7.81               -0.88               -0.36               
H              -7.384              0.389               1.776               
H              -3.151              0.603               -1.378              
H              -5.151              1.876               2.823               
H              -1.937              1.918               0.176               
H              -2.915              2.557               2.269               
N              -4.262              0.589               -4.863              
C              -3.452              0.374               -6.096              
C              -1.955              0.471               -5.803              
O              -1.397              1.554               -5.781              
C              -3.857              1.502               -7.046              
C              -4.481              0.91                -8.31               
C              -5.906              0.442               -8.008              
O              -6.774              1.292               -7.89               
O              -6.104              -0.756              -7.9                
H              -4.06               1.324               -4.185              
H              -3.668              -0.532              -6.472              
H              -4.532              2.036               -6.608              
H              -3.058              1.977               -7.308              
H              -4.537              1.607               -8.979              
H              -3.967              0.132               -8.572              
N              -1.282              -0.637              -5.61               
C              0.179               -0.547              -5.368              
C              0.824               0.071               -6.599              
O              0.735               -0.448              -7.694              
C              0.695               -1.968              -5.164              
C              0.283               -2.862              -6.339              
S              -0.068              -4.532              -5.735              
C              -1.47               -4.11               -4.672              
H              -1.797              -1.511              -5.636              
H              0.32                0.063               -4.597              
H              1.686               -1.957              -5.113              
H              0.305               -2.346              -4.332              
H              -0.531              -2.461              -6.781              
H              1.031               -2.875              -7.015              
H              -2.167              -4.82               -4.753              
H              -1.157              -4.05               -3.726              
H              -1.846              -3.232              -4.96               
N              1.457               1.183               -6.431              
C              2.096               1.856               -7.59               
C              3.501               2.306               -7.199              
O              4.047               1.851               -6.212              
C              1.185               3.049               -7.891              
H              1.494               1.567               -5.478              
H              2.161               1.198               -8.337              
H              0.434               2.751               -8.477              
H              0.82                3.41                -7.035              
H              1.712               3.757               -8.356              
N              4.102               3.181               -7.955              
C              5.477               3.62                -7.592              
C              5.553               5.136               -7.454              
O              5.003               5.878               -8.244              
C              6.373               3.13                -8.729              
C              5.934               3.783               -10.043             
C              6.843               3.305               -11.177             
C              7.563               4.505               -11.795             
N              8.859               4.59                -11.062             
H              3.6                 3.529               -8.768              
H              5.719               3.196               -6.713              
H              7.294               3.401               -8.543              
H              6.269               2.161               -8.816              
H              5.003               3.514               -10.243             
H              6.013               4.765               -9.959              
H              7.517               2.689               -10.808             
H              6.291               2.877               -11.871             
H              7.729               4.327               -12.738             
H              7.04                5.31                -11.632             
H              9.031               3.724               -10.594             
H              9.595               4.772               -11.713             
H              8.812               5.33                -10.393             
N              6.231               5.597               -6.439              
C              6.347               7.065               -6.226              
C              7.792               7.442               -5.904              
O              8.717               6.713               -6.196              
C              5.441               7.36                -5.03               
O              5.431               8.76                -4.784              
C              5.966               6.626               -3.791              
H              6.666               4.908               -5.816              
H              6.077               7.521               -7.075              
H              4.489               7.067               -5.256              
H              6.416               5.777               -4.071              
H              6.623               7.208               -3.311              
H              5.203               6.412               -3.181              
H              5.563               9.272               -5.641              
N              7.98                8.578               -5.292              
C              9.358               9.031               -4.928              
C              10.32               8.876               -6.118              
O              10.451              9.766               -6.934              
C              9.773               8.134               -3.759              
O              11.189              8.034               -3.719              
H              7.142               9.136               -5.077              
H              9.302               10.004              -4.697              
H              9.453               8.538               -2.915              
H              9.389               7.233               -3.895              
H              11.448              7.16                -3.311              
N              10.994              7.758               -6.231              
C              11.936              7.57                -7.373              
C              12.034              6.09                -7.744              
O              12.046              5.728               -8.904              
C              13.282              8.089               -6.867              
O              13.667              9.224               -7.627              
H              10.84               7.046               -5.513              
H              11.559              8.066               -8.156              
H              13.189              8.351               -5.918              
H              13.962              7.379               -6.979              
H              13.761              10.013              -7.022              
N              12.104              5.238               -6.767              
C              12.201              3.778               -7.052              
C              11.601              2.987               -5.887              
O              12.133              1.978               -5.471              
H              12.089              5.615               -5.812              
H              11.698              3.578               -7.889              
H              13.161              3.534               -7.166              
N              10.495              3.436               -5.358              
H              10.099              4.292               -5.758              
H              10.0558             2.93086             -4.56906            
