240
2.xyz
C              2.377               31.741              11.613              
C              1.807               32.962              12.311              
O              2.225               33.264              13.432              
C              1.742               30.441              12.179              
C              2.489               29.177              11.79               
C              3.578               28.622              12.43               
C              2.215               28.325              10.665              
N              3.99                27.483              11.771              
C              3.18                27.282              10.683              
C              1.255               28.347              9.634               
C              3.207               26.269              9.721               
C              1.283               27.327              8.67                
C              2.259               26.308              8.723               
H              2.139               31.815              10.629              
H              1.746               30.491              13.166              
H              0.822               30.358              11.826              
H              4.004               28.993              13.25               
H              4.753               26.9                12.042              
H              0.571               29.062              9.583               
H              3.9                 25.544              9.768               
H              0.608               27.329              7.947               
H              2.252               25.604              8.015               
N              0.902               33.678              11.658              
C              0.33                34.838              12.31               
C              -0.448              34.453              13.55               
O              -1.123              33.419              13.539              
C              -0.577              35.643              11.339              
C              -1.772              34.809              10.706              
C              -2.64               35.725              9.726               
C              -3.842              36.445              10.488              
N              -4.913              35.475              10.91               
H              0.664               33.357              10.72               
H              1.077               35.466              12.577              
H              -0.983              36.399              11.835              
H              -0.023              35.973              10.586              
H              -1.396              34.071              10.179              
H              -2.356              34.498              11.429              
H              -2.054              36.421              9.36                
H              -3.025              35.15               9.03                
H              -3.457              36.895              11.289              
H              -4.224              37.122              9.865               
H              -5.015              35.517              11.901              
H              -5.77               35.727              10.468              
H              -4.644              34.556              10.633              
N              -0.328              35.252              14.603              
C              -1.041              34.96               15.834              
C              -0.308              34.004              16.757              
O              -0.742              33.797              17.886              
H              0.292               36.066              14.472              
H              -1.221              35.832              16.333              
H              -1.956              34.568              15.607              
N              0.787               33.41               16.281              
C              1.569               32.487              17.095              
C              2.957               33.009              17.401              
O              3.489               33.796              16.625              
C              1.682               31.118              16.409              
C              0.361               30.4                16.265              
C              -0.64               30.892              15.423              
C              0.094               29.241              17                  
C              -1.875              30.246              15.324              
C              -1.134              28.592              16.908              
C              -2.108              29.1                16.074              
O              -3.325              28.474              15.99               
H              1.026               33.658              15.303              
H              1.08                32.352              17.974              
H              2.065               31.258              15.501              
H              2.291               30.548              16.954              
H              -0.474              31.715              14.885              
H              0.8                 28.872              17.602              
H              -2.581              30.606              14.718              
H              -1.304              27.766              17.443              
H              -3.185              27.509              15.772              
N              3.566               32.576              18.515              
C              4.906               33.067              18.845              
C              5.997               32.519              17.933              
O              5.794               31.475              17.293              
C              5.089               32.615              20.309              
C              3.671               32.504              20.804              
C              2.995               31.839              19.653              
H              4.92                34.086              18.846              
H              5.549               31.735              20.349              
H              5.594               33.296              20.825              
H              3.636               31.944              21.622              
H              3.297               33.406              20.977              
H              3.226               30.874              19.594              
H              2.007               31.956              19.685              
N              7.123               33.223              17.852              
C              8.233               32.758              17.03               
C              8.64                31.336              17.387              
O              9.098               30.605              16.509              
C              9.452               33.686              17.2                
C              9.381               35.033              16.355              
C              10.387              35.044              15.215              
O              11.615              35.017              15.504              
O              9.954               35.07               14.032              
H              7.139               34.095              18.403              
H              7.972               32.798              16.054              
H              9.508               33.959              18.138              
H              10.25               33.214              16.889              
H              8.484               35.079              15.982              
H              9.595               35.757              16.968              
N              8.479               30.96               18.655              
C              8.839               29.617              19.096              
C              8.052               28.555              18.367              
O              8.439               27.395              18.415              
C              8.582               29.399              20.608              
O              7.201               29.651              20.901              
C              9.464               30.308              21.446              
H              8.087               31.685              19.28               
H              9.824               29.476              18.908              
H              8.785               28.427              20.835              
H              9.022               31.201              21.561              
H              9.615               29.899              22.35               
H              10.35               30.437              20.993              
H              6.761               30.121              20.129              
N              6.964               28.964              17.723              
C              6.118               28.045              16.988              
C              6.513               27.91               15.529              
O              5.901               27.123              14.802              
C              4.644               28.48               17.066              
C              3.985               28.309              18.506              
C              4.079               26.886              19.018              
O              4.142               25.957              18.188              
O              4.073               26.696              20.249              
H              6.779               29.987              17.794              
H              6.147               27.128              17.43               
H              4.587               29.433              16.857              
H              4.118               27.92               16.462              
H              4.481               28.894              19.106              
H              3.045               28.548              18.41               
N              7.511               28.672              15.102              
C              7.938               28.573              13.728              
C              8.29                27.153              13.355              
O              8.871               26.446              14.17               
C              9.145               29.483              13.467              
C              8.803               30.944              13.61               
H              7.923               29.299              15.801              
H              7.155               28.847              13.148              
H              9.856               29.252              14.124              
H              9.465               29.315              12.539              
O              7.641               31.309              13.777              
N              9.813               31.789              13.54               
H              10.746              31.455              13.393              
H              9.653               32.776              13.633              
N              7.917               26.728              12.161              
C              8.242               25.382              11.75               
C              8.632               25.281              10.301              
O              8.225               26.123              9.495               
C              7.057               24.418              11.96               
O              5.976               24.818              11.112              
C              6.592               24.426              13.423              
H              7.403               27.406              11.585              
H              9.023               25.053              12.317              
H              7.346               23.48               11.689              
H              5.632               24.702              13.466              
H              6.693               23.509              13.81               
H              7.149               25.072              13.946              
H              5.666               24.043              10.551              
N              9.435               24.276              9.991               
C              9.824               24.018              8.627               
C              8.742               23.226              7.937               
O              8.353               22.182              8.458               
C              11.115              23.187              8.574               
C              12.354              23.928              8.887               
C              13.041              23.921              10.065              
C              13.099              24.759              7.991               
N              14.17               24.694              9.956               
C              14.228              25.222              8.69                
C              12.914              25.16               6.66                
C              15.184              26.065              8.103               
C              13.864              25.999              6.074               
C              14.982              26.442              6.797               
H              9.751               23.705              10.802              
H              9.906               24.9                8.155               
H              11.032              22.437              9.232               
H              11.208              22.81               7.651               
H              12.765              23.427              10.888              
H              14.843              24.85               10.678              
H              12.125              24.857              6.136               
H              15.978              26.371              8.632               
H              13.739              26.283              5.131               
H              15.64               27.043              6.345               
N              8.248               23.713              6.81                
C              7.218               23.003              6.064               
C              7.641               22.777              4.626               
O              8.212               23.687              4.025               
C              5.898               23.8                6.053               
C              5.281               24.144              7.479               
C              4.97                22.902              8.288               
O              4.703               21.845              7.672               
O              4.973               22.989              9.536               
H              8.648               24.622              6.511               
H              7.033               22.115              6.506               
H              6.06                24.666              5.613               
H              5.215               23.268              5.585               
H              5.953               24.668              7.951               
H              4.452               24.628              7.312               
N              7.4                 21.583              4.071               
C              7.783               21.324              2.679               
C              6.939               22.214              1.778               
O              5.792               22.49               2.134               
C              7.458               19.838              2.502               
C              6.287               19.647              3.414               
C              6.715               20.417              4.655               
H              8.754               21.489              2.539               
H              7.212               19.64               1.558               
H              8.226               19.272              2.783               
H              5.466               20.041              3.024               
H              6.156               18.689              3.626               
H              5.928               20.7                5.189               
H              7.34                19.88               5.211               
N              7.477               22.659              0.648               
C              6.727               23.543              -0.241              
C              5.313               23.068              -0.577              
O              4.428               23.911              -0.72               
C              7.531               23.788              -1.532              
C              7.637               22.532              -2.503              
C              8.482               22.845              -3.728              
O              8.303               23.948              -4.3                
O              9.313               21.992              -4.122              
H              8.439               22.336              0.459               
H              6.674               24.475              0.178               
H              7.085               24.491              -2.049              
H              8.451               24.019              -1.289              
H              8.07                21.827              -1.997              
H              6.734               22.326              -2.791              
N              5.109               21.753              -0.687              
C              3.792               21.191              -0.993              
C              3.888               19.655              -1.207              
C              4.558               18.944              -0.046              
H              5.957               21.17               -0.538              
H              3.472               21.635              -1.848              
H              2.964               19.304              -1.312              
H              4.417               19.496              -2.033              
O              5.755               19.109              0.191               
N              3.786               18.149              0.687               
H              2.818               18.042              0.454               
H              4.169               17.658              1.468               
H              3.03869             21.3985             -0.224611           
H              3.42444             31.6813             11.688              
