235
2.xyz
C              3.551               4.661               -6.621              
O              3.849               3.836               -7.482              
N              4.455               5.381               -5.963              
C              5.882               5.237               -6.222              
C              6.345               3.813               -5.929              
O              6.883               3.133               -6.802              
C              6.679               6.231               -5.377              
O              6.259               7.559               -5.634              
C              8.171               6.167               -5.625              
H              4.063               6.04                -5.264              
H              6.053               5.43                -7.195              
H              6.514               6.027               -4.383              
H              8.549               7.095               -5.692              
H              8.625               5.685               -4.87               
H              8.357               5.677               -6.482              
H              5.328               7.715               -5.28               
N              6.129               3.369               -4.694              
C              6.521               2.027               -4.283              
C              5.778               0.968               -5.093              
O              6.374               -0.003              -5.559              
C              6.241               1.832               -2.794              
C              7.21                2.551               -1.905              
C              8.571               2.572               -2.021              
C              6.891               3.353               -0.763              
N              9.117               3.34                -1.019              
C              8.105               3.829               -0.234              
C              5.695               3.715               -0.138              
C              8.156               4.648               0.892               
C              5.747               4.527               0.979               
C              6.97                4.987               1.483               
H              5.665               4.05                -4.061              
H              7.503               1.92                -4.475              
H              5.336               2.182               -2.587              
H              6.303               0.865               -2.577              
H              9.095               2.101               -2.727              
H              10.091              3.514               -0.884              
H              4.817               3.396               -0.489              
H              9.041               4.969               1.245               
H              4.898               4.787               1.432               
H              6.965               5.576               2.292               
N              4.474               1.163               -5.251              
C              3.644               0.227               -5.999              
C              4.029               0.203               -7.476              
O              3.965               -0.84               -8.126              
C              2.149               0.584               -5.867              
C              1.285               -0.405              -6.633              
C              1.741               0.631               -4.402              
H              4.104               2.025               -4.803              
H              3.796               -0.697              -5.625              
H              2.014               1.477               -6.287              
H              1.867               -0.996              -7.192              
H              0.765               -0.965              -5.988              
H              0.652               0.093               -7.226              
H              0.883               1.136               -4.314              
H              1.618               -0.302              -4.063              
H              2.456               1.089               -3.874              
N              4.423               1.359               -7.999              
C              4.813               1.468               -9.402              
C              6.299               1.176               -9.588              
O              6.705               0.604               -10.6               
C              4.488               2.865               -9.937              
O              3.107               3.153               -9.805              
H              4.429               2.159               -7.339              
H              4.295               0.779               -9.925              
H              5.011               3.536               -9.42               
H              4.737               2.904               -10.9               
H              2.969               3.778               -9.038              
N              7.108               1.575               -8.61               
C              8.551               1.356               -8.674              
C              8.874               -0.122              -8.878              
O              9.89                -0.467              -9.48               
C              9.224               1.863               -7.396              
C              9.559               3.345               -7.433              
C              10.833              3.637               -8.2                
O              10.883              3.327               -9.409              
O              11.782              4.176               -7.592              
H              6.635               2.045               -7.816              
H              8.941               1.891               -9.433              
H              8.6                 1.716               -6.652              
H              10.065              1.369               -7.284              
H              8.825               3.816               -7.885              
H              9.69                3.656               -6.51               
N              8.005               -0.989              -8.369              
C              8.219               -2.418              -8.506              
C              8.492               -3.102              -7.178              
O              8.74                -4.307              -7.135              
H              7.195               -0.568              -7.886              
H              7.402               -2.841              -8.937              
H              9.002               -2.583              -9.132              
N              8.446               -2.334              -6.091              
C              8.69                -2.878              -4.759              
C              7.757               -4.051              -4.473              
O              8.135               -5.008              -3.797              
C              8.505               -1.788              -3.701              
C              9.786               -1.408              -2.994              
C              10.275              -2.172              -1.942              
C              10.506              -0.283              -3.377              
C              11.445              -1.828              -1.293              
C              11.677              0.068               -2.733              
C              12.143              -0.707              -1.692              
O              13.308              -0.36               -1.048              
H              8.226               -1.336              -6.271              
H              9.637               -3.216              -4.724              
H              8.142               -0.976              -4.149              
H              7.86                -2.121              -3.019              
H              9.77                -2.987              -1.648              
H              10.17               0.28                -4.132              
H              11.786              -2.391              -0.536              
H              12.185              0.882               -3.021              
H              13.912              0.106               -1.692              
N              6.538               -3.97               -4.994              
C              5.55                -5.025              -4.798              
C              5.325               -5.798              -6.095              
O              4.362               -5.544              -6.82               
C              4.224               -4.438              -4.302              
C              4.382               -3.281              -3.353              
C              5.472               -3.205              -2.498              
C              3.437               -2.267              -3.316              
C              5.616               -2.142              -1.628              
C              3.577               -1.201              -2.448              
C              4.667               -1.138              -1.603              
H              6.353               -3.107              -5.542              
H              5.94                -5.675              -4.138              
H              3.721               -4.119              -5.092              
H              3.734               -5.156              -3.83               
H              6.162               -3.926              -2.511              
H              2.644               -2.309              -3.927              
H              6.415               -2.105              -1.013              
H              2.875               -0.468              -2.435              
H              4.774               -0.368              -0.972              
N              6.217               -6.752              -6.408              
C              6.116               -7.562              -7.626              
C              4.911               -8.498              -7.607              
O              4.499               -9.014              -8.646              
C              7.418               -8.367              -7.634              
C              7.846               -8.414              -6.208              
C              7.396               -7.115              -5.599              
H              6.093               -6.968              -8.447              
H              7.259               -9.292              -7.994              
H              8.11                -7.914              -8.204              
H              7.421               -9.196              -5.736              
H              8.847               -8.512              -6.142              
H              7.14                -7.229              -4.639              
H              8.102               -6.41               -5.673              
N              4.352               -8.72               -6.42               
C              3.2                 -9.597              -6.272              
C              1.969               -8.822              -5.8                
O              0.863               -9.363              -5.768              
C              3.524               -10.717             -5.282              
C              2.349               -11.646             -5.045              
O              1.792               -12.163             -6.037              
O              1.985               -11.857             -3.87               
H              4.802               -8.223              -5.627              
H              2.982               -9.964              -7.185              
H              4.279               -11.245             -5.652              
H              3.781               -10.3               -4.419              
N              2.164               -7.558              -5.43               
C              1.059               -6.748              -4.96               
C              0.885               -6.842              -3.46               
O              1.346               -7.796              -2.834              
H              3.138               -7.224              -5.507              
H              1.216               -5.781              -5.219              
H              0.204               -7.046              -5.415              
N              0.221               -5.851              -2.88               
C              -0.006              -5.831              -1.443              
C              -1.455              -5.504              -1.113              
O              -2.186              -4.96               -1.94               
C              0.913               -4.813              -0.742              
C              2.346               -5.319              -0.721              
C              0.833               -3.457              -1.425              
H              -0.113              -5.111              -3.525              
H              0.195               -6.751              -1.08               
H              0.615               -4.739              0.204               
H              2.349               -6.313              -0.608              
H              2.798               -5.082              -1.581              
H              2.839               -4.897              0.04                
H              0.24                -3.525              -2.227              
H              0.457               -2.786              -0.786              
H              1.75                -3.175              -1.708              
N              -1.861              -5.838              0.106               
C              -3.219              -5.581              0.557               
C              -3.442              -4.085              0.747               
O              -3.294              -3.561              1.85                
C              -3.48               -6.329              1.865               
C              -4.547              -7.393              1.752               
C              -4.565              -8.273              0.679               
C              -5.535              -7.516              2.72                
C              -5.54               -9.248              0.572               
C              -6.512              -8.488              2.622               
C              -6.51               -9.351              1.546               
O              -7.483              -10.319             1.444               
H              -1.135              -6.291              0.698               
H              -3.857              -5.904              -0.15               
H              -2.631              -6.766              2.15                
H              -3.771              -5.667              2.551               
H              -3.861              -8.201              -0.031              
H              -5.537              -6.891              3.5                 
H              -5.54               -9.877              -0.21               
H              -7.218              -8.566              3.328               
H              -7.113              -11.19              1.762               
N              -3.788              -3.402              -0.339              
C              -4.014              -1.963              -0.296              
C              -5.425              -1.634              0.175               
O              -6.381              -2.341              -0.143              
C              -3.769              -1.346              -1.672              
S              -2.069              -0.793              -1.941              
H              -3.881              -3.972              -1.202              
H              -3.363              -1.56               0.361               
H              -3.989              -2.03               -2.363              
H              -4.374              -0.558              -1.771              
H              -1.522              -1.555              -2.288              
N              -5.543              -0.551              0.934               
C              -6.826              -0.112              1.454               
C              -7.351              -1.124              2.478               
C              -8.3                -0.531              3.508               
C              -9.4                -1.508              3.891               
N              -10.726             -0.993              3.562               
C              -11.257             0.095               4.115               
N              -10.581             0.781               5.029               
N              -12.467             0.5                 3.755               
H              -4.647              -0.052              1.12                
H              -7.486              -0.058              0.698               
H              -7.837              -1.84               1.986               
H              -6.571              -1.509              2.962               
H              -7.791              -0.297              4.333               
H              -8.729              0.287               3.132               
H              -9.245              -2.359              3.396               
H              -9.343              -1.668              4.873               
H              -11.27              -1.488              2.879               
H              -9.662              0.507               5.301               
H              -11.001             1.591               5.454               
H              -12.97              -0.007              3.05                
H              -12.877             1.304               4.179               
H              2.53403             4.8341              -6.35926            
H              -6.73336            0.881879            1.90642             
