312
4.xyz
C              30.546              6.997               15.151              
O              29.832              6.075               15.553              
N              30.601              8.185               15.745              
C              29.843              8.478               16.952              
C              28.326              8.425               16.619              
O              27.532              7.805               17.337              
C              30.201              9.864               17.472              
C              29.38               10.344              18.673              
C              29.622              11.831              19.023              
N              28.752              12.258              20.112              
C              29.019              12.041              21.408              
N              30.149              11.47               21.796              
N              28.148              12.48               22.323              
H              31.224              8.875               15.277              
H              30.03               7.783               17.641              
H              31.163              9.862               17.746              
H              30.068              10.525              16.733              
H              28.406              10.235              18.476              
H              29.62               9.803               19.479              
H              30.57               11.922              19.293              
H              29.43               12.362              18.209              
H              27.904              12.742              19.885              
H              30.837              11.207              21.118              
H              30.319              11.301              22.768              
H              27.33               12.975              22.041              
H              28.322              12.31               23.294              
N              27.967              8.988               15.469              
C              26.586              9.007               15.027              
C              25.994              7.633               14.837              
O              24.885              7.364               15.316              
C              26.433              9.79                13.729              
C              25.038              9.747               13.179              
H              28.752              9.405               14.927              
H              26.034              9.499               15.729              
H              26.677              10.75               13.891              
H              27.054              9.409               13.039              
N              24.087              10.696              13.497              
C              24.419              8.836               12.402              
C              22.94               10.36               12.948              
N              23.116              9.228               12.272              
H              24.252              11.508              14.056              
H              24.835              8.022               11.996              
H              22.083              10.859              13.021              
N              26.714              6.787               14.101              
C              26.246              5.442               13.822              
C              26.439              4.492               14.995              
O              25.921              3.375               14.996              
C              26.838              4.918               12.51               
C              26.277              5.635               11.307              
C              24.954              5.42                10.902              
C              27.048              6.553               10.589              
C              24.41               6.098               9.808               
C              26.522              7.235               9.496               
C              25.198              7.005               9.112               
O              24.688              7.692               8.029               
H              27.614              7.169               13.756              
H              25.252              5.486               13.616              
H              27.817              5.06                12.532              
H              26.618              3.956               12.432              
H              24.385              4.768               11.404              
H              27.991              6.722               10.866              
H              23.467              5.931               9.533               
H              27.082              7.883               8.987               
H              23.715              7.855               8.176               
N              27.233              4.922               15.976              
C              27.404              4.135               17.192              
C              26.12               4.394               18.02               
O              25.574              3.495               18.637              
C              28.652              4.572               17.984              
O              29.838              4.222               17.238              
C              28.691              3.885               19.346              
H              27.697              5.826               15.803              
H              27.427              3.181               16.961              
H              28.637              5.584               18.093              
H              29.309              3.098               19.31               
H              29.017              4.529               20.04               
H              27.772              3.572               19.593              
H              29.993              4.89                16.505              
N              25.634              5.628               17.976              
C              24.422              6.028               18.687              
C              23.128              5.53                18.054              
O              22.208              5.128               18.764              
C              24.365              7.557               18.831              
C              25.313              8.074               19.893              
H              26.192              6.291               17.389              
H              24.474              5.616               19.617              
H              24.612              7.961               17.956              
H              23.435              7.811               19.079              
O              25.521              7.427               20.923              
N              25.916              9.226               19.641              
H              25.728              9.711               18.783              
H              26.557              9.615               20.302              
N              23.054              5.566               16.726              
C              21.853              5.116               16.005              
C              22.235              4.385               14.737              
O              23.217              4.741               14.096              
C              20.957              6.323               15.646              
H              23.898              5.931               16.249              
H              21.341              4.491               16.604              
H              20.125              6.28                16.191              
H              21.453              7.163               15.846              
H              20.733              6.281               14.677              
N              21.475              3.355               14.38               
C              21.752              2.629               13.143              
C              21.446              3.57                11.957              
O              22.136              3.528               10.925              
C              20.939              1.333               13.076              
O              19.545              1.565               13.222              
H              20.707              3.124               15.024              
H              22.721              2.415               13.112              
H              21.103              0.896               12.192              
H              21.243              0.725               13.81               
H              19.321              2.472               12.868              
N              20.387              4.377               12.103              
C              19.968              5.388               11.131              
C              20.203              5.052               9.661               
O              20.827              5.83                8.919               
C              20.669              6.71                11.495              
C              20.113              7.9                 10.755              
O              19.021              7.809               10.15               
O              20.788              8.949               10.757              
H              19.864              4.216               13.008              
H              18.955              5.51                11.249              
H              20.554              6.851               12.474              
H              21.634              6.609               11.274              
N              19.69               3.9                 9.235               
C              19.854              3.457               7.852               
C              20.707              2.204               7.731               
O              20.425              1.31                6.931               
H              19.176              3.358               9.953               
H              18.94               3.279               7.449               
H              20.278              4.204               7.311               
N              21.767              2.122               8.533               
C              22.632              0.958               8.482               
C              21.937              -0.323              8.95                
O              20.896              -0.28               9.615               
C              23.887              1.184               9.325               
C              24.772              2.404               9.082               
C              26.024              2.214               9.91                
C              25.117              2.536               7.598               
H              21.907              2.924               9.162               
H              22.933              0.818               7.523               
H              23.597              1.218               10.298              
H              24.476              0.365               9.218               
H              24.294              3.214               9.378               
H              26.494              1.376               9.626               
H              26.637              2.995               9.781               
H              25.781              2.143               10.879              
H              24.274              2.637               7.07                
H              25.696              3.34                7.463               
H              25.605              1.717               7.298               
N              22.541              -1.457              8.625               
C              22.031              -2.766              9.002               
C              22.069              -3.002              10.507              
O              21.355              -3.864              11.014              
C              22.826              -3.867              8.303               
S              24.586              -3.973              8.789               
H              23.423              -1.329              8.07                
H              21.065              -2.829              8.701               
H              22.399              -4.746              8.511               
H              22.791              -3.703              7.317               
H              24.669              -3.738              9.754               
N              22.903              -2.249              11.219              
C              23.003              -2.366              12.675              
C              23.838              -1.19               13.198              
O              24.434              -0.455              12.403              
C              23.647              -3.721              13.085              
O              23.441              -3.96               14.494              
C              25.165              -3.729              12.778              
H              23.47               -1.58               10.661              
H              22.09               -2.298              13.065              
H              23.188              -4.469              12.567              
H              25.451              -4.663              12.572              
H              25.342              -3.139              11.993              
H              25.661              -3.391              13.575              
H              24.31               -4.203              14.933              
N              23.803              -0.952              14.511              
C              24.59               0.131               15.092              
C              26.043              -0.323              15.156              
O              26.324              -1.522              15.266              
C              24.132              0.457               16.517              
C              22.722              1.032               16.645              
C              22.251              0.979               18.101              
N              22.914              1.968               18.931              
C              23.021              1.908               20.257              
N              22.52               0.894               20.943              
N              23.605              2.902               20.907              
H              23.193              -1.579              15.055              
H              24.529              0.93                14.501              
H              24.169              -0.386              17.057              
H              24.77               1.124               16.905              
H              22.723              1.979               16.356              
H              22.094              0.494               16.099              
H              21.267              1.141               18.107              
H              22.446              0.064               18.448              
H              23.33               2.77                18.47               
H              22.066              0.139               20.47               
H              22.595              0.878               21.943              
H              23.98               3.682               20.403              
H              23.675              2.877               21.906              
N              26.971              0.623               15.03               
C              28.378              0.29                15.134              
C              28.633              -0.025              16.616              
O              28.316              0.792               17.494              
C              29.242              1.473               14.692              
C              29.126              2.012               13.263              
C              30.146              3.155               13.026              
C              29.338              0.869               12.263              
H              26.609              1.573               14.859              
H              28.561              -0.527              14.61               
H              29.041              2.246               15.315              
H              30.21               1.212               14.831              
H              28.207              2.369               13.118              
H              31.065              2.799               13.169              
H              30.047              3.484               12.091              
H              29.958              3.89                13.671              
H              28.643              0.168               12.413              
H              29.261              1.227               11.334              
H              30.247              0.477               12.399              
N              29.174              -1.206              16.891              
C              29.465              -1.589              18.263              
C              30.953              -1.412              18.568              
O              31.363              -0.327              18.939              
C              29.018              -3.018              18.54               
O              29.122              -3.309              19.927              
H              29.362              -1.806              16.072              
H              28.953              -0.979              18.877              
H              28.071              -3.122              18.26               
H              29.602              -3.644              18.036              
H              29.157              -2.455              20.443              
N              31.761              -2.448              18.37               
C              33.194              -2.344              18.66               
C              34.051              -2.543              17.424              
O              33.708              -3.327              16.522              
C              33.597              -3.402              19.693              
C              32.746              -3.421              20.962              
C              33.275              -4.478              21.9                
N              34.581              -4.103              22.435              
C              35.618              -4.921              22.557              
N              35.524              -6.176              22.16               
N              36.719              -4.502              23.167              
H              31.31               -3.301              18.008              
H              33.377              -1.423              19.04               
H              33.526              -4.301              19.263              
H              34.543              -3.232              19.962              
H              32.805              -2.542              21.407              
H              31.814              -3.645              20.725              
H              32.632              -4.583              22.651              
H              33.361              -5.331              21.395              
H              34.704              -3.143              22.736              
H              34.689              -6.53               21.745              
H              36.313              -6.797              22.275              
H              36.77               -3.563              23.515              
H              37.497              -5.118              23.279              
N              35.202              -1.85               17.368              
C              36.12               -1.966              16.244              
C              36.589              -3.416              16.18               
O              36.564              -4.147              17.185              
C              37.28               -1.06               16.658              
C              36.612              -0.025              17.531              
C              35.692              -0.877              18.358              
H              35.688              -1.695              15.392              
H              37.963              -1.568              17.176              
H              37.7                -0.632              15.864              
H              37.282              0.434               18.094              
H              36.107              0.618               16.976              
H              36.181              -1.339              19.092              
H              34.936              -0.345              18.732              
N              36.986              -3.839              14.999              
C              37.459              -5.191              14.771              
C              38.589              -5.53               15.758              
O              39.517              -4.741              15.93               
C              37.989              -5.291              13.33               
S              38.512              -6.938              12.808              
H              36.932              -3.119              14.238              
H              36.705              -5.83               14.941              
H              37.261              -4.978              12.716              
H              38.772              -4.668              13.25               
H              38.931              -7.416              13.58               
N              38.493              -6.694              16.397              
C              39.518              -7.172              17.337              
C              40.495              -8.049              16.532              
O              40.065              -8.916              15.762              
C              38.849              -7.972              18.465              
C              37.894              -7.108              19.29               
C              38.613              -5.968              19.986              
H              37.631              -7.24               16.177              
H              40.021              -6.388              17.669              
H              38.328              -8.715              18.066              
H              39.553              -8.321              19.072              
H              37.204              -6.727              18.68               
H              37.461              -7.683              19.979              
O              39.48               -6.196              20.826              
N              38.26               -4.734              19.636              
H              38.688              -3.925              20.07               
H              37.546              -4.615              18.917              
N              41.795              -7.859              16.726              
C              42.777              -8.598              15.943              
C              43.792              -9.413              16.767              
O              44.641              -10.118             16.175              
C              43.558              -7.62               15.048              
O              44.313              -6.721              15.873              
C              42.586              -6.798              14.184              
O              43.765              -9.296              18.005              
H              42.038              -7.168              17.452              
H              42.279              -9.251              15.333              
H              44.213              -8.15               14.474              
H              43.101              -6.12               13.659              
H              42.101              -7.408              13.558              
H              41.928              -6.334              14.776              
H              43.92               -5.797              15.832              
H              31.1274             6.88044             14.268              
