304
0.xyz
N              36.15               20.384              9.129               
C              35.132              20.611              10.195              
C              34.102              19.477              10.3                
O              33.021              19.667              10.848              
C              34.414              21.951              9.987               
C              35.076              23.147              10.697              
C              35.788              24.069              9.748               
C              36.826              23.327              8.978               
N              36.279              22.62               7.739               
H              35.685              20.2                8.267               
H              35.617              20.693              11.079              
H              34.393              22.149              9.01                
H              33.482              21.865              10.334              
H              34.359              23.656              11.186              
H              35.73               22.788              11.372              
H              35.124              24.455              9.113               
H              36.226              24.796              10.27               
H              37.551              23.96               8.671               
H              37.258              22.624              9.562               
H              35.744              21.838              8.037               
H              35.71               23.263              7.239               
H              37.048              22.327              7.183               
H              36.717              21.199              9.04                
H              36.717              19.604              9.38                
N              34.392              18.336              9.68                
C              33.599              17.116              9.862               
C              33.614              16.611              11.318              
O              34.682              16.385              11.876              
C              34.14               16.023              8.934               
C              33.342              14.738              8.99                
C              33.899              13.632              8.115               
O              35.096              13.336              8.228               
O              33.132              13.036              7.355               
H              35.227              18.381              9.056               
H              32.642              17.289              9.584               
H              34.096              16.366              8.015               
H              35.058              15.821              9.216               
H              33.347              14.409              9.921               
H              32.423              14.926              8.679               
N              32.435              16.473              11.922              
C              32.321              15.962              13.288              
C              32.591              14.458              13.302              
O              32.503              13.788              12.282              
C              30.913              16.214              13.877              
O              29.939              15.455              13.159              
C              30.491              17.699              13.751              
H              31.616              16.755              11.348              
H              33.013              16.412              13.856              
H              30.908              15.905              14.851              
H              29.506              17.747              13.598              
H              30.727              18.178              14.594              
H              30.974              18.111              12.981              
H              30.351              15.039              12.34               
N              32.891              13.928              14.485              
C              33.091              12.495              14.674              
C              31.827              11.747              14.284              
O              31.889              10.686              13.673              
C              33.461              12.197              16.12               
H              32.97               14.622              15.261              
H              33.841              12.192              14.082              
H              34.355              11.751              16.151              
H              33.498              13.051              16.638              
H              32.774              11.593              16.523              
N              30.672              12.307              14.63               
C              29.403              11.674              14.283              
C              29.218              11.629              12.753              
O              28.765              10.64               12.21               
C              28.244              12.398              14.915              
H              30.749              13.196              15.147              
H              29.402              10.73               14.626              
H              27.67               11.75               15.421              
H              28.582              13.098              15.548              
H              27.689              12.84               14.207              
N              29.57               12.728              12.079              
C              29.458              12.818              10.625              
C              30.422              11.827              9.957               
O              30.089              11.176              8.97                
C              29.72               14.277              10.164              
H              29.926              13.503              12.675              
H              28.522              12.58               10.354              
H              29.388              14.898              10.866              
H              30.698              14.399              10.032              
H              29.235              14.433              9.309               
N              31.604              11.702              10.541              
C              32.588              10.763              10.042              
C              32.087              9.328               10.166              
O              32.309              8.525               9.278               
C              33.917              10.942              10.742              
C              34.977              9.967               10.281              
C              36.397              10.418              10.516              
C              36.677              10.747              11.957              
N              36.627              9.567               12.864              
H              31.756              12.317              11.361              
H              32.766              10.956              9.068               
H              34.246              11.868              10.567              
H              33.778              10.815              11.723              
H              34.834              9.08                10.757              
H              34.851              9.792               9.288               
H              37.021              9.686               10.226              
H              36.574              11.235              9.96                
H              37.594              11.172              12.028              
H              36.002              11.432              12.279              
H              36.588              9.88                13.812              
H              35.814              9.024               12.657              
H              37.446              9.01                12.728              
N              31.408              9                   11.27               
C              30.863              7.666               11.427              
C              29.85               7.384               10.304              
O              29.826              6.309               9.765               
C              30.23               7.488               12.828              
C              29.52               6.18                13.001              
C              28.221              6.014               12.544              
C              30.182              5.086               13.555              
C              27.587              4.819               12.648              
C              29.545              3.881               13.662              
C              28.239              3.748               13.23               
H              31.315              9.754               11.966              
H              31.614              7.017               11.298              
H              30.96               7.537               13.488              
H              29.577              8.217               12.949              
H              27.749              6.797               12.129              
H              31.123              5.194               13.87               
H              26.643              4.708               12.305              
H              30.032              3.081               14.061              
H              27.76               2.873               13.337              
N              28.986              8.357               9.998               
C              28.012              8.189               8.898               
C              28.718              7.967               7.56                
O              28.349              7.078               6.805               
C              27.064              9.377               8.835               
C              26.16               9.449               10.058              
C              25.089              10.516              9.96                
O              24.467              10.64               8.876               
O              24.83               11.213              10.97               
H              29.053              9.206               10.573              
H              27.417              7.404               9.1                 
H              27.6                10.193              8.816               
H              26.493              9.269               8.052               
H              25.707              8.579               10.156              
H              26.719              9.659               10.843              
N              29.768              8.731               7.317               
C              30.492              8.577               6.059               
C              31.209              7.234               5.965               
O              31.244              6.595               4.911               
C              31.494              9.693               5.884               
C              32.42               9.536               4.681               
C              33.305              10.751              4.444               
N              34.15               11.053              5.585               
C              35.307              10.467              5.843               
N              35.786              9.506               5.058               
N              36.001              10.835              6.897               
H              30.017              9.404               8.047               
H              29.832              8.643               5.294               
H              31                  10.555              5.773               
H              32.068              9.742               6.701               
H              33.014              8.741               4.823               
H              31.868              9.388               3.857               
H              33.876              10.563              3.646               
H              32.709              11.531              4.254               
H              33.831              11.765              6.232               
H              35.281              9.226               4.243               
H              36.655              9.064               5.284               
H              35.668              11.57               7.495               
H              36.872              10.385              7.114               
N              31.789              6.799               7.083               
C              32.589              5.589               7.085               
C              31.781              4.331               7.258               
O              32.25               3.263               6.849               
C              33.669              5.669               8.175               
C              34.658              6.798               7.915               
C              35.858              6.853               8.848               
H              31.621              7.385               7.918               
H              33.068              5.533               6.186               
H              33.229              5.834               9.048               
H              34.17               4.812               8.191               
H              34.999              6.712               6.966               
H              34.163              7.679               7.983               
O              36.937              7.326               8.456               
N              35.688              6.391               10.076              
H              36.448              6.384               10.746              
H              34.767              6.037               10.345              
N              30.589              4.409               7.849               
C              29.902              3.185               8.224               
C              28.431              3.091               7.878               
O              27.89               2.033               8.048               
C              30.049              2.93                9.734               
C              31.463              2.806               10.184              
H              30.228              5.352               8.003               
H              30.387              2.397               7.765               
H              29.618              3.69                10.232              
H              29.562              2.08                9.964               
N              32.279              1.77                9.79                
C              32.198              3.581               11                  
C              33.471              1.922               10.343              
N              33.444              3.014               11.081              
H              32.013              1.023               9.183               
H              31.899              4.413               11.463              
H              34.25               1.316               10.223              
N              27.789              4.161               7.396               
C              26.368              4.091               7.073               
C              26.156              3.985               5.59                
O              26.716              4.777               4.817               
C              25.633              5.321               7.544               
C              25.502              5.374               9.04                
S              24.597              3.987               9.85                
C              23.028              4.176               9.072               
H              28.368              5.004               7.279               
H              25.992              3.263               7.511               
H              26.126              6.142               7.235               
H              24.711              5.332               7.14                
H              26.456              5.454               9.459               
H              25.055              6.28                9.308               
H              23.035              3.75                8.161               
H              22.308              3.74                9.624               
H              22.804              5.151               8.967               
N              25.34               3.02                5.196               
C              24.891              2.938               3.8                 
C              23.46               2.432               3.797               
O              23.185              1.3                 3.488               
C              25.769              2.025               2.945               
C              25.27               1.925               1.499               
O              24.537              2.841               1.059               
O              25.585              0.983               0.751               
H              25.054              2.351               5.926               
H              24.879              3.867               3.442               
H              26.687              2.397               2.933               
H              25.757              1.119               3.343               
N              22.547              3.305               4.184               
C              21.137              2.946               4.27                
C              20.495              2.706               2.881               
O              19.414              2.078               2.777               
C              20.366              4.069               4.965               
O              20.926              4.395               6.215               
H              22.911              4.25                4.417               
H              21.059              2.081               4.788               
H              20.382              4.878               4.377               
H              19.42               3.772               5.097               
H              20.768              3.647               6.861               
N              21.14               3.238               1.832               
C              20.716              3.131               0.415               
C              21.272              1.915               -0.201              
O              22.307              2.003               -0.848              
C              21.389              4.135               -0.508              
O              21.262              5.449               -0.13               
H              22.017              3.766               2.107               
H              19.709              3.079               0.418               
H              22.376              3.893               -0.569              
H              21.001              4.011               -1.441              
H              21.965              5.693               0.548               
N              20.943              0.78                0.285               
C              20.827              -0.346              -0.517              
C              20.32               -1.223              0.56                
O              20.797              -1.194              1.708               
C              22.17               -0.801              -1.075              
O              22.101              -2.202              -1.371              
C              23.294              -0.664              -0.028              
H              20.772              0.781               1.329               
H              20.13               -0.224              -1.172              
H              22.358              -0.304              -1.945              
H              23.395              0.298               0.223               
H              23.058              -1.2                0.781               
H              24.15               -1.002              -0.417              
H              22.75               -2.713              -0.797              
N              19.304              -1.971              0.208               
C              18.793              -2.952              1.108               
C              19.736              -4.177              1.072               
O              19.251              -5.307              1.062               
C              17.369              -3.316              0.702               
O              16.514              -2.192              0.799               
H              18.926              -1.79               -0.74               
H              18.817              -2.594              2.039               
H              17.374              -3.639              -0.239              
H              17.034              -4.031              1.309               
H              16.822              -1.601              1.544               
N              21.048              -3.944              0.877               
C              22.127              -4.912              1.156               
C              22.692              -5.634              -0.056              
O              23.615              -6.439              0.081               
C              21.675              -5.935              2.213               
H              21.247              -2.98               0.496               
H              22.889              -4.407              1.62                
H              22.48               -6.354              2.626               
H              21.141              -5.467              2.912               
H              21.117              -6.634              1.772               
N              22.25               -5.266              -1.248              
C              22.377              -6.213              -2.347              
C              23.813              -6.264              -2.945              
O              24.018              -6.829              -4.028              
C              21.217              -6.014              -3.407              
H              21.847              -4.338              -1.321              
H              22.151              -7.143              -2.013              
H              21.562              -6.296              -4.291              
H              20.452              -6.576              -3.128              
H              20.971              -5.055              -3.411              
N              24.77               -5.788              -2.11               
C              26.225              -5.524              -2.354              
C              27.02               -5.476              -1.023              
O              26.45               -4.544              -0.1                
H              24.353              -5.585              -1.123              
H              26.283              -4.588              -2.765              
H              27.007              -6.383              -0.616              
H              27.954              -5.2                -1.225              
H              25.529              -4.842              0.138               
H              26.7234             -6.22201            -3.00964            
