231
5.xyz
C              41.911              -1.613              -3.445              
O              40.955              -1.273              -4.13               
N              42.118              -2.859              -3.034              
C              41.216              -3.95               -3.377              
C              40.693              -4.615              -2.121              
O              41.447              -4.83               -1.174              
C              41.931              -4.967              -4.247              
H              42.973              -2.986              -2.451              
H              40.438              -3.576              -3.894              
H              41.262              -5.471              -4.795              
H              42.571              -4.498              -4.856              
H              42.435              -5.609              -3.669              
N              39.401              -4.959              -2.15               
C              38.696              -5.52               -0.997              
C              37.79               -6.708              -1.335              
O              37.193              -6.805              -2.419              
C              37.794              -4.454              -0.355              
C              38.565              -3.311              0.232               
C              38.961              -2.244              -0.549              
C              38.915              -3.322              1.564               
C              39.68               -1.21               -0.017              
C              39.65               -2.285              2.107               
C              40.029              -1.235              1.302               
O              40.748              -0.173              1.816               
H              38.936              -4.791              -3.073              
H              39.393              -5.841              -0.327              
H              37.187              -4.103              -1.059              
H              37.271              -4.891              0.369               
H              38.716              -2.229              -1.525              
H              38.636              -4.084              2.146               
H              39.951              -0.43               -0.598              
H              39.903              -2.299              3.074               
H              40.96               -0.357              2.773               
N              37.649              -7.58               -0.358              
C              36.652              -8.629              -0.402              
C              35.385              -8.117              0.298               
O              35.475              -7.558              1.413               
C              37.146              -9.868              0.32                
C              36.145              -11.005             0.365               
C              36.748              -12.224             1.002               
C              36.958              -12.034             2.486               
N              37.383              -13.295             3.144               
H              38.31               -7.451              0.441               
H              36.425              -8.835              -1.35               
H              37.971              -10.196             -0.143              
H              37.375              -9.615              1.262               
H              35.348              -10.715             0.896               
H              35.861              -11.225             -0.568              
H              36.136              -13.002             0.865               
H              37.633              -12.413             0.579               
H              37.663              -11.334             2.631               
H              36.1                -11.719             2.902               
H              38.304              -13.537             2.837               
H              37.384              -13.169             4.136               
H              36.747              -14.028             2.902               
N              34.233              -8.296              -0.348              
C              32.929              -7.867              0.161               
C              32.187              -9.043              0.749               
O              32.026              -10.063             0.076               
C              32.097              -7.324              -1.013              
O              32.681              -6.112              -1.519              
C              30.685              -6.949              -0.574              
H              34.341              -8.783              -1.277              
H              33.082              -7.186              0.884               
H              32.099              -8.014              -1.768              
H              30.018              -7.33               -1.218              
H              30.507              -7.316              0.341               
H              30.591              -5.952              -0.553              
H              32.875              -5.478              -0.764              
N              31.74               -8.92               2                   
C              30.956              -9.978              2.619               
C              29.75               -9.408              3.352               
O              29.879              -8.752              4.401               
C              31.796              -10.74              3.635               
O              32.994              -11.242             3.037               
C              31.04               -11.952             4.168               
H              31.993              -8.036              2.47                
H              30.623              -10.597             1.896               
H              32.066              -10.102             4.394               
H              31.641              -12.754             4.166               
H              30.732              -11.774             5.105               
H              30.243              -12.136             3.588               
H              33.661              -10.499             2.91                
N              28.575              -9.696              2.826               
C              27.318              -9.3                3.42                
C              26.962              -10.237             4.553               
O              27.262              -11.434             4.509               
C              26.216              -9.365              2.357               
C              25.653              -8.029              2.01                
C              24.926              -7.417              3.182               
H              28.632              -10.245             1.927               
H              27.429              -8.378              3.805               
H              26.602              -9.78               1.532               
H              25.479              -9.948              2.706               
H              26.394              -7.415              1.744               
H              25.008              -8.126              1.254               
O              24.162              -8.096              3.885               
N              25.167              -6.141              3.417               
H              24.703              -5.649              4.185               
H              25.827              -5.641              2.822               
N              26.333              -9.684              5.585               
C              25.882              -10.479             6.705               
C              24.768              -9.781              7.476               
O              24.458              -8.645              7.227               
C              27.039              -10.774             7.618               
H              26.2                -8.656              5.513               
H              25.526              -11.362             6.362               
H              26.772              -10.619             8.572               
H              27.326              -11.729             7.512               
H              27.813              -10.176             7.396               
N              24.135              -10.544             8.366               
C              23.114              -10.051             9.284               
C              23.578              -10.427             10.685              
O              23.527              -11.593             11.084              
C              21.744              -10.647             8.971               
C              21.169              -10.118             7.672               
H              24.441              -11.553             8.35                
H              23.12               -9.062              9.23                
H              21.839              -11.635             8.897               
H              21.122              -10.414             9.712               
O              20.695              -8.982              7.596               
N              21.182              -10.951             6.645               
H              21.551              -11.876             6.749               
H              20.821              -10.66              5.756               
N              24.11               -9.427              11.386              
C              24.71               -9.6                12.698              
C              24.37               -8.432              13.605              
O              23.927              -7.393              13.162              
C              26.233              -9.687              12.542              
C              26.726              -10.886             11.763              
C              28.205              -10.896             11.672              
C              28.65               -12.129             10.956              
N              30.117              -12.25              10.945              
H              24.057              -8.495              10.902              
H              24.353              -10.447             13.112              
H              26.543              -8.855              12.076              
H              26.635              -9.716              13.46               
H              26.409              -11.72              12.224              
H              26.329              -10.856             10.841              
H              28.513              -10.101             11.162              
H              28.596              -10.898             12.585              
H              28.255              -12.938             11.408              
H              28.314              -12.103             10.007              
H              30.411              -12.885             11.662              
H              30.423              -12.595             10.055              
H              30.533              -11.353             11.11               
N              24.591              -8.641              14.905              
C              24.472              -7.561              15.882              
C              25.705              -6.685              15.729              
O              26.803              -7.201              15.541              
C              24.403              -8.128              17.304              
C              23.304              -9.127              17.506              
H              24.848              -9.613              15.152              
H              23.671              -7.02               15.66               
H              25.279              -8.574              17.521              
H              24.263              -7.37               17.95               
N              21.986              -8.763              17.689              
C              23.328              -10.479             17.567              
C              21.24               -9.846              17.833              
N              22.032              -10.901             17.77               
H              21.647              -7.821              17.709              
H              24.13               -11.063             17.483              
H              20.255              -9.863              17.967              
N              25.513              -5.387              15.752              
C              26.653              -4.481              15.682              
C              27.019              -3.966              17.068              
O              26.166              -3.907              17.953              
C              26.393              -3.297              14.711              
C              25.323              -2.339              15.237              
C              26.087              -3.808              13.32               
C              25.191              -1.057              14.404              
H              24.535              -5.074              15.82               
H              27.432              -5.03               15.365              
H              27.25               -2.789              14.62               
H              24.445              -2.806              15.237              
H              25.558              -2.081              16.169              
H              26.028              -3.039              12.683              
H              26.812              -4.428              13.021              
H              25.216              -4.299              13.324              
H              24.947              -1.305              13.471              
H              24.48               -0.486              14.804              
H              26.063              -0.577              14.415              
N              28.292              -3.605              17.228              
C              28.803              -2.983              18.436              
C              29.442              -1.681              18.03               
O              30.397              -1.671              17.253              
C              29.797              -3.882              19.211              
C              29.147              -5.221              19.562              
C              30.295              -3.158              20.459              
C              30.103              -6.225              20.168              
H              28.898              -3.813              16.393              
H              28.01               -2.757              18.992              
H              30.572              -4.06               18.615              
H              28.403              -5.052              20.206              
H              28.762              -5.61               18.725              
H              30.971              -3.726              20.924              
H              30.712              -2.291              20.195              
H              29.526              -2.986              21.071              
H              30.486              -5.851              21.011              
H              29.611              -7.071              20.37               
H              30.84               -6.413              19.52               
N              28.919              -0.586              18.562              
C              29.44               0.73                18.276              
C              29.813              1.428               19.565              
O              29.244              1.157               20.617              
C              28.404              1.59                17.496              
C              28.118              0.964               16.127              
C              27.128              1.834               18.314              
H              28.108              -0.76               19.197              
H              30.274              0.629               17.724              
H              28.817              2.476               17.33               
H              28.943              1.008               15.566              
H              27.846              0.012               16.251              
H              27.381              1.469               15.682              
H              26.444              1.155               18.056              
H              27.345              1.749               19.284              
H              26.789              2.752               18.119              
N              30.75               2.361               19.474              
C              31.061              3.232               20.611              
C              30.409              4.58                20.371              
O              30.438              5.1                 19.247              
C              32.564              3.412               20.804              
H              31.229              2.422               18.561              
H              30.678              2.828               21.438              
H              33.051              2.7                 20.3                
H              32.838              4.31                20.462              
H              32.785              3.343               21.776              
N              29.87               5.141               21.442              
H              29.99               4.602               22.324              
H              42.6376             -0.904544           -3.14766            
H              29.3843             6.02222             21.3907             
