200
4.xyz
C              37.632              7.134               37.509              
O              37.135              7.267               38.626              
N              37.417              7.972               36.504              
C              36.515              9.103               36.625              
C              35.232              8.592               35.982              
O              35.267              8.017               34.889              
C              37.043              10.311              35.851              
C              36.099              11.502              35.862              
C              36.678              12.677              35.09               
C              35.743              13.878              35.124              
N              36.287              15.039              34.362              
H              37.945              7.75                35.633              
H              36.345              9.288               37.571              
H              37.907              10.591              36.261              
H              37.19               10.035              34.904              
H              35.231              11.235              35.442              
H              35.938              11.784              36.808              
H              37.544              12.938              35.502              
H              36.812              12.407              34.143              
H              34.858              13.612              34.73               
H              35.599              14.151              36.08               
H              37.203              14.817              34.032              
H              35.688              15.234              33.586              
H              36.33               15.837              34.962              
N              34.11               8.78                36.667              
C              32.817              8.325               36.17               
C              32.028              9.481               35.569              
O              31.788              10.487              36.236              
C              31.982              7.707               37.309              
O              32.645              6.54                37.811              
C              30.597              7.329               36.815              
H              34.232              9.273               37.575              
H              32.974              7.64                35.449              
H              31.911              8.384               38.068              
H              29.903              7.652               37.463              
H              30.428              7.747               35.919              
H              30.525              6.332               36.729              
H              32.806              5.883               37.067              
N              31.617              9.337               34.313              
C              30.856              10.389              33.654              
C              29.629              9.862               32.921              
O              29.747              9.136               31.934              
C              31.724              11.156              32.64               
O              32.887              11.67               33.298              
C              30.94               12.313              32.042              
H              31.877              8.445               33.864              
H              30.544              11.049              34.36               
H              32.029              10.509              31.913              
H              29.964              12.083              32.01               
H              31.065              13.135              32.602              
H              31.263              12.499              31.111              
H              32.867              11.438              34.276              
N              28.452              10.234              33.41               
C              27.206              9.815               32.784              
C              26.913              10.715              31.594              
O              27.338              11.871              31.558              
C              26.043              9.915               33.771              
C              24.689              9.658               33.129              
C              24.534              8.23                32.643              
H              28.498              10.833              34.255              
H              27.328              8.882               32.442              
H              26.177              9.241               34.496              
H              26.032              10.834              34.164              
H              23.974              9.844               33.803              
H              24.582              10.274              32.349              
O              23.593              7.902               31.916              
N              25.454              7.366               33.054              
H              25.409              6.386               32.781              
H              26.211              7.698               33.649              
N              26.183              10.184              30.619              
C              25.826              10.962              29.443              
C              24.723              10.286              28.644              
O              24.367              9.137               28.897              
C              27.049              11.174              28.56               
H              25.901              9.2                 30.767              
H              25.497              11.87               29.741              
H              27.818              11.478              29.122              
H              27.287              10.315              28.107              
H              26.846              11.869              27.871              
N              24.174              11.026              27.692              
C              23.13               10.52               26.812              
C              23.596              10.877              25.412              
O              23.465              12.019              24.969              
C              21.79               11.188              27.129              
C              21.201              10.705              28.439              
H              24.552              11.998              27.627              
H              23.137              9.537               26.88               
H              21.935              12.171              27.188              
H              21.152              10.976              26.395              
O              20.69               9.588               28.532              
N              21.283              11.542              29.466              
H              21.711              12.439              29.348              
H              20.917              11.279              30.359              
N              24.162              9.892               24.728              
C              24.693              10.103              23.39               
C              24.403              8.927               22.471              
O              23.918              7.884               22.903              
C              26.21               10.305              23.463              
C              26.656              11.519              24.26               
C              28.171              11.604              24.32               
C              28.619              12.897              24.982              
N              30.103              13.018              24.977              
H              24.192              8.978               25.22               
H              24.268              10.933              22.997              
H              26.612              9.489               23.882              
H              26.556              10.398              22.527              
H              26.302              12.345              23.823              
H              26.298              11.45               25.189              
H              28.516              10.839              24.852              
H              28.533              11.579              23.396              
H              28.224              13.671              24.485              
H              28.291              12.909              25.928              
H              30.356              13.983              24.914              
H              30.47               12.629              25.822              
H              30.473              12.522              24.192              
N              24.7                9.112               21.19               
C              24.513              8.055               20.212              
C              25.741              7.174               20.355              
O              26.86               7.677               20.457              
C              24.48               8.635               18.797              
C              23.416              9.666               18.587              
H              25.067              10.054              20.958              
H              23.719              7.528               20.459              
H              25.373              9.056               18.595              
H              24.328              7.886               18.141              
N              22.109              9.341               18.293              
C              23.465              11.018              18.636              
C              21.4                10.448              18.168              
N              22.199              11.48               18.372              
H              21.756              8.411               18.192              
H              24.269              11.575              18.827              
H              20.428              10.498              17.955              
N              25.549              5.864               20.381              
C              26.694              4.981               20.499              
C              27.064              4.433               19.126              
O              26.232              4.38                18.215              
C              26.422              3.794               21.468              
C              25.367              2.848               20.883              
C              25.992              4.326               22.827              
C              25.224              1.551               21.663              
H              24.576              5.551               20.314              
H              27.463              5.549               20.795              
H              27.271              3.289               21.569              
H              24.49               3.318               20.876              
H              25.628              2.629               19.947              
H              25.864              3.563               23.459              
H              26.696              4.938               23.184              
H              25.133              4.827               22.733              
H              24.957              1.761               22.601              
H              24.525              0.984               21.231              
H              26.098              1.069               21.661              
N              28.332              4.07                18.977              
C              28.831              3.486               17.738              
C              29.512              2.182               18.131              
O              30.477              2.175               18.897              
C              29.857              4.397               17.027              
C              29.192              5.714               16.614              
C              30.419              3.685               15.793              
C              30.145              6.718               15.98               
H              28.933              4.237               19.812              
H              28.037              3.241               17.204              
H              30.579              4.606               17.674              
H              28.461              5.51                15.965              
H              28.789              6.13                17.428              
H              31.095              4.272               15.354              
H              30.849              2.83                16.074              
H              29.676              3.494               15.157              
H              30.544              6.316               15.159              
H              29.638              7.543               15.741              
H              30.866              6.941               16.632              
N              28.993              1.076               17.615              
C              29.548              -0.231              17.92               
C              29.921              -0.974              16.651              
O              29.381              -0.705              15.58               
C              28.537              -1.105              18.7                
C              28.224              -0.465              20.039              
C              27.262              -1.29               17.88               
H              28.178              1.224               16.991              
H              30.388              -0.098              18.462              
H              28.976              -1.976              18.885              
H              29.072              -0.33               20.554              
H              27.781              0.421               19.893              
H              27.611              -1.059              20.561              
H              27.039              -0.43               17.422              
H              27.411              -2.007              17.2                
H              26.516              -1.552              18.49               
N              30.869              -1.894              16.773              
C              31.272              -2.713              15.64               
C              30.503              -4.017              15.808              
O              30.404              -4.534              16.919              
C              32.768              -2.975              15.683              
H              31.284              -1.975              17.718              
H              30.983              -2.279              14.805              
H              33.193              -2.631              14.845              
H              33.168              -2.509              16.472              
H              32.934              -3.958              15.76               
N              29.949              -4.541              14.719              
H              30.096              -4.004              13.848              
H              29.4244             -5.40696            14.7641             
H              38.2637             6.31805             37.2836             
