187
5.xyz
C              38.657              -5.695              -1.123              
C              37.725              -6.84               -1.461              
O              37.234              -6.957              -2.58               
C              37.8                -4.617              -0.457              
C              38.576              -3.489              0.151               
C              39.035              -2.432              -0.629              
C              38.883              -3.496              1.507               
C              39.784              -1.405              -0.07               
C              39.63               -2.483              2.073               
C              40.078              -1.441              1.282               
O              40.825              -0.437              1.846               
H              39.345              -6.036              -0.444              
H              37.182              -4.241              -1.15               
H              37.259              -5.054              0.264               
H              38.824              -2.41               -1.607              
H              38.555              -4.248              2.079               
H              40.105              -0.649              -0.638              
H              39.848              -2.5                3.05                
H              40.957              -0.63               2.817               
N              37.479              -7.673              -0.46               
C              36.547              -8.777              -0.592              
C              35.283              -8.239              0.069               
O              35.348              -7.662              1.158               
C              37.051              -10.002             0.166               
C              36.036              -11.13              0.267               
C              36.678              -12.393             0.828               
C              37.312              -12.16              2.197               
N              36.314              -11.723             3.209               
H              38.006              -7.468              0.416               
H              36.364              -8.942              -1.538              
H              37.86               -10.35              -0.304              
H              37.297              -9.718              1.092               
H              35.294              -10.85              0.873               
H              35.675              -11.328             -0.641              
H              35.977              -13.096             0.921               
H              37.389              -12.7               0.2                 
H              37.741              -13.015             2.503               
H              38.023              -11.456             2.107               
H              36.103              -12.487             3.818               
H              36.691              -10.965             3.741               
H              35.48               -11.424             2.746               
N              34.146              -8.412              -0.593              
C              32.868              -7.934              -0.076              
C              32.057              -9.09               0.499               
O              31.786              -10.069             -0.194              
C              32.048              -7.255              -1.197              
O              32.75               -6.099              -1.677              
C              30.684              -6.832              -0.681              
H              34.243              -8.912              -1.502              
H              33.047              -7.276              0.662               
H              31.947              -7.911              -1.971              
H              30.788              -6.304              0.166               
H              30.221              -6.264              -1.366              
H              30.123              -7.642              -0.494              
H              32.961              -5.478              -0.915              
N              31.667              -8.976              1.766               
C              30.888              -10.031             2.402               
C              29.705              -9.495              3.198               
O              29.874              -8.757              4.169               
C              31.764              -10.879             3.343               
O              32.919              -11.339             2.631               
C              30.984              -12.085             3.852               
H              31.955              -8.106              2.24                
H              30.53               -10.645             1.678               
H              32.079              -10.293             4.116               
H              31.536              -12.915             3.747               
H              30.76               -11.959             4.821               
H              30.136              -12.186             3.328               
H              32.851              -11.094             1.658               
N              28.505              -9.883              2.782               
C              27.285              -9.461              3.454               
C              27.006              -10.345             4.66                
O              27.366              -11.524             4.683               
C              26.092              -9.539              2.502               
C              24.755              -9.262              3.177               
C              24.6                -7.816              3.603               
O              25.408              -6.958              3.242               
N              23.564              -7.54               4.386               
H              28.514              -10.505             1.948               
H              27.421              -8.521              3.786               
H              26.216              -8.866              1.773               
H              26.055              -10.457             2.106               
H              24.021              -9.487              2.536               
H              24.679              -9.845              3.987               
H              23.402              -6.594              4.725               
H              22.929              -8.293              4.646               
N              26.353              -9.77               5.661               
C              26.005              -10.511             6.862               
C              24.866              -9.837              7.615               
O              24.505              -8.69               7.34                
C              27.231              -10.643             7.774               
H              26.119              -8.77               5.514               
H              25.71               -11.44              6.599               
H              27.155              -11.483             8.307               
H              28.056              -10.674             7.213               
H              27.27               -9.857              8.388               
N              24.293              -10.577             8.554               
C              23.213              -10.083             9.396               
C              23.646              -10.441             10.803              
O              23.49               -11.579             11.246              
C              21.899              -10.773             9.037               
C              21.337              -10.289             7.72                
H              24.683              -11.545             8.638               
H              23.214              -9.101              9.33                
H              22.065              -11.753             8.973               
H              21.237              -10.583             9.757               
O              20.789              -9.188              7.632               
N              21.479              -11.102             6.683               
H              21.934              -11.987             6.799               
H              21.133              -10.835             5.783               
N              24.219              -9.461              11.492              
C              24.722              -9.677              12.842              
C              24.448              -8.489              13.75               
O              23.986              -7.44               13.304              
C              26.232              -9.919              12.797              
C              26.669              -11.15              12.021              
C              28.184              -11.22              11.953              
C              28.657              -12.519             11.326              
N              30.149              -12.594             11.299              
H              24.275              -8.552              10.997              
H              24.269              -10.494             13.232              
H              26.664              -9.115              12.38               
H              26.56               -10.009             13.742              
H              26.327              -11.964             12.481              
H              26.305              -11.1               11.096              
H              28.517              -10.461             11.401              
H              28.552              -11.161             12.876              
H              28.301              -13.288             11.858              
H              28.311              -12.576             10.389              
H              30.43               -13.552             11.276              
H              30.487              -12.124             10.485              
H              30.515              -12.156             12.118              
N              24.727              -8.665              15.036              
C              24.545              -7.59               15.997              
C              25.785              -6.729              15.853              
O              26.882              -7.251              15.669              
C              24.485              -8.142              17.424              
C              23.368              -9.111              17.654              
H              25.075              -9.608              15.285              
H              23.76               -7.057              15.734              
H              25.354              -8.606              17.631              
H              24.375              -7.374              18.066              
N              22.063              -8.713              17.85               
C              23.36               -10.464             17.7                
C              21.299              -9.78               18.006              
N              22.061              -10.854             17.92               
H              21.746              -7.765              17.87               
H              24.147              -11.066             17.595              
H              20.315              -9.775              18.163              
N              25.622              -5.416              15.907              
C              26.783              -4.548              15.802              
C              27.117              -3.981              17.174              
O              26.254              -3.892              18.052              
C              26.553              -3.379              14.804              
C              25.469              -2.432              15.323              
C              26.171              -3.938              13.442              
C              25.348              -1.138              14.527              
H              24.659              -5.087              16.023              
H              27.551              -5.132              15.539              
H              27.404              -2.871              14.735              
H              24.592              -2.907              15.297              
H              25.681              -2.201              16.271              
H              26.06               -3.188              12.792              
H              26.889              -4.553              13.12               
H              25.312              -4.442              13.517              
H              25.125              -1.358              13.58               
H              24.625              -0.578              14.924              
H              26.216              -0.649              14.566              
N              28.383              -3.628              17.361              
C              28.849              -3.032              18.606              
C              29.868              -3.938              19.342              
C              29.195              -5.252              19.756              
C              30.405              -3.216              20.581              
C              30.141              -6.244              20.425              
H              29.009              -3.813              16.547              
H              28.041              -2.791              19.123              
H              30.598              -4.151              18.707              
H              28.452              -5.043              20.387              
H              28.814              -5.68               18.939              
H              31.072              -3.799              21.039              
H              30.84               -2.364              20.302              
H              29.649              -3.02               21.201              
H              30.519              -5.828              21.249              
H              29.633              -7.068              20.663              
H              30.876              -6.47               19.791              
H              39.1876             -5.29102            -1.9477             
H              29.338              -2.09126            18.3338             
