284
3.xyz
C              21.896              -1.188              24.902              
O              22.205              -0.653              25.964              
N              22.343              -2.395              24.564              
C              23.174              -3.156              25.506              
C              24.607              -2.662              25.705              
O              25.436              -2.752              24.81               
C              23.196              -4.642              25.124              
C              23.846              -5.512              26.19               
C              23.847              -6.982              25.82               
C              24.584              -7.797              26.874              
N              24.574              -9.256              26.582              
H              22.071              -2.731              23.637              
H              22.703              -3.155              26.421              
H              22.26               -4.944              24.999              
H              23.711              -4.737              24.282              
H              24.796              -5.209              26.322              
H              23.348              -5.394              27.055              
H              22.911              -7.305              25.77               
H              24.31               -7.099              24.951              
H              25.538              -7.477              26.923              
H              24.151              -7.637              27.769              
H              25.493              -9.548              26.32               
H              24.284              -9.756              27.398              
H              23.938              -9.44               25.833              
N              24.891              -2.161              26.904              
C              26.222              -1.656              27.234              
C              27.161              -2.853              27.378              
O              26.892              -3.771              28.161              
C              26.165              -0.873              28.555              
C              27.449              -0.099              28.862              
H              24.097              -2.16               27.575              
H              26.541              -1.128              26.453              
H              25.411              -0.221              28.503              
H              26.004              -1.52               29.297              
O              27.688              0.27                30.013              
N              28.26               0.166               27.846              
H              28.002              -0.142              26.923              
H              29.109              0.661               27.99               
N              28.245              -2.843              26.605              
C              29.244              -3.908              26.64               
C              30.639              -3.294              26.598              
O              30.815              -2.157              26.172              
C              29.104              -4.883              25.441              
C              27.724              -5.525              25.449              
C              29.347              -4.159              24.13               
H              28.319              -2.014              25.976              
H              29.148              -4.399              27.506              
H              29.767              -5.61               25.57               
H              27.028              -4.819              25.577              
H              27.568              -5.992              24.579              
H              27.668              -6.187              26.196              
H              29.636              -4.818              23.435              
H              28.502              -3.711              23.836              
H              30.063              -3.472              24.258              
N              31.633              -4.048              27.046              
C              32.999              -3.546              27.036              
C              33.515              -3.416              25.612              
O              33.258              -4.266              24.756              
C              33.914              -4.482              27.838              
H              31.363              -4.982              27.388              
H              33.014              -2.636              27.468              
H              34.661              -4.791              27.253              
H              34.282              -3.988              28.622              
H              33.385              -5.267              28.152              
N              34.237              -2.33               25.363              
C              34.838              -2.09               24.063              
C              36.096              -2.939              23.98               
O              36.692              -3.268              25.004              
C              35.279              -0.644              23.932              
S              34.002              0.633               24.002              
H              34.332              -1.678              26.169              
H              34.207              -2.398              23.359              
H              35.952              -0.455              24.668              
H              35.771              -0.547              23.048              
N              36.523              -3.263              22.767              
C              37.732              -4.052              22.604              
C              38.942              -3.37               23.257              
O              39.855              -4.049              23.732              
C              38.01               -4.301              21.119              
C              37.083              -5.315              20.477              
C              37.56               -5.655              19.077              
C              36.8                -6.837              18.51               
N              37.446              -7.348              17.27               
H              35.946              -2.92               21.986              
H              37.602              -4.952              23.042              
H              37.912              -3.433              20.635              
H              38.949              -4.63               21.031              
H              37.075              -6.146              21.027              
H              36.165              -4.932              20.423              
H              37.412              -4.868              18.487              
H              38.527              -5.885              19.112              
H              36.776              -7.569              19.193              
H              35.863              -6.553              18.299              
H              37.836              -8.251              17.447              
H              36.763              -7.415              16.544              
H              38.171              -6.719              16.991              
N              38.945              -2.04               23.295              
C              40.059              -1.308              23.888              
C              39.968              -1.155              25.405              
O              40.799              -0.485              26.016              
C              40.211              0.077               23.237              
C              39.047              1.012               23.534              
H              38.114              -1.586              22.88               
H              40.903              -1.843              23.697              
H              41.049              0.494               23.582              
H              40.274              -0.048              22.249              
O              38.167              0.707               24.335              
N              39.047              2.171               22.881              
H              39.78               2.382               22.235              
H              38.312              2.832               23.036              
N              38.961              -1.773              26.012              
C              38.818              -1.687              27.455              
C              37.921              -0.569              27.952              
O              37.547              -0.55               29.123              
H              38.323              -2.293              25.395              
H              38.461              -2.582              27.809              
H              39.748              -1.58               27.877              
N              37.593              0.379               27.083              
C              36.713              1.468               27.478              
C              35.323              0.882               27.7                
O              35.027              -0.207              27.215              
C              36.683              2.551               26.402              
C              37.968              3.368               26.315              
C              38.327              4.041               27.629              
H              38.001              0.278               26.142              
H              37.034              1.829               28.347              
H              36.531              2.119               25.512              
H              35.929              3.181               26.598              
H              38.716              2.759               26.054              
H              37.851              4.073               25.616              
O              39.007              3.457               28.473              
N              37.858              5.274               27.813              
H              38.046              5.779               28.672              
H              37.305              5.702               27.072              
N              34.472              1.615               28.411              
C              33.129              1.139               28.751              
C              31.968              1.737               27.961              
O              30.804              1.445               28.256              
C              32.833              1.412               30.231              
O              32.861              2.829               30.457              
C              33.874              0.745               31.121              
H              34.836              2.545               28.703              
H              33.112              0.118               28.614              
H              31.897              1.075               30.45               
H              34.385              1.443               31.627              
H              33.421              0.133               31.772              
H              34.511              0.214               30.558              
H              33.704              3.226               30.079              
N              32.268              2.555               26.962              
C              31.22               3.212               26.192              
C              30.793              2.525               24.891              
O              30.501              3.194               23.903              
C              31.637              4.665               25.913              
C              32.888              4.768               25.057              
H              33.278              2.682               26.783              
H              30.386              3.247               26.791              
H              30.888              5.119               25.438              
H              31.81               5.113               26.786              
O              33.906              4.131               25.339              
N              32.822              5.582               24.008              
H              31.979              6.09                23.824              
H              33.61               5.688               23.404              
N              30.748              1.195               24.89               
C              30.315              0.466               23.699              
C              28.942              -0.137              23.924              
O              28.558              -0.442              25.056              
C              31.331              -0.619              23.306              
S              32.752              0.152               22.475              
H              31.034              0.742               25.769              
H              30.253              1.118               22.938              
H              31.651              -1.054              24.118              
H              30.904              -1.23               22.677              
N              28.196              -0.276              22.837              
C              26.845              -0.802              22.911              
C              26.571              -1.771              21.785              
O              26.966              -1.542              20.635              
C              25.839              0.353               22.868              
C              26.088              1.376               23.949              
C              27.064              2.356               23.79               
C              25.425              1.299               25.172              
C              27.385              3.228               24.818              
C              25.736              2.165               26.21               
C              26.719              3.126               26.028              
O              27.046              3.979               27.057              
H              28.652              0.017               21.952              
H              26.745              -1.296              23.787              
H              25.917              0.801               21.987              
H              24.93               -0.022              22.995              
H              27.546              2.433               22.913              
H              24.715              0.61                25.302              
H              28.09               3.925               24.688              
H              25.256              2.098               27.084              
H              27.537              4.766               26.687              
N              25.885              -2.854              22.133              
C              25.533              -3.904              21.19               
C              24.05               -3.83               20.84               
O              23.203              -3.689              21.721              
C              25.857              -5.266              21.804              
C              25.604              -6.442              20.882              
C              26.106              -7.74               21.47               
H              25.62               -2.886              23.147              
H              26.054              -3.753              20.344              
H              26.825              -5.277              22.067              
H              25.296              -5.388              22.628              
H              24.622              -6.521              20.724              
H              26.074              -6.279              20.017              
O              27.227              -7.811              21.962              
N              25.279              -8.778              21.415              
H              25.553              -9.687              21.778              
H              24.356              -8.649              21                  
N              23.742              -3.917              19.55               
C              22.353              -3.857              19.106              
C              21.605              -5.11               19.553              
O              22.136              -6.219              19.488              
C              22.285              -3.721              17.576              
O              22.802              -4.867              16.915              
H              24.546              -4.027              18.911              
H              21.918              -3.066              19.544              
H              21.331              -3.595              17.31               
H              22.818              -2.922              17.304              
H              22.045              -5.433              16.592              
N              20.375              -4.928              20.022              
C              19.564              -6.059              20.461              
C              19.135              -6.901              19.266              
O              19.063              -8.124              19.354              
C              18.328              -5.57               21.218              
C              18.642              -4.99               22.575              
C              19.305              -5.748              23.536              
C              18.291              -3.679              22.896              
C              19.617              -5.213              24.785              
C              18.597              -3.135              24.144              
C              19.262              -3.91               25.082              
O              19.57               -3.378              26.314              
H              20.054              -3.946              20.048              
H              20.124              -6.635              21.065              
H              17.885              -4.866              20.67               
H              17.713              -6.343              21.343              
H              19.563              -6.693              23.332              
H              17.814              -3.119              22.223              
H              20.098              -5.773              25.462              
H              18.338              -2.196              24.358              
H              20.256              -2.662              26.199              
N              18.854              -6.236              18.152              
C              18.446              -6.921              16.931              
C              19.647              -7.054              16.006              
O              20.628              -6.313              16.13               
C              17.356              -6.123              16.21               
O              16.202              -5.961              17.014              
H              18.948              -5.203              18.224              
H              18.141              -7.841              17.176              
H              17.719              -5.222              15.978              
H              17.104              -6.609              15.374              
H              16.323              -6.454              17.875              
N              19.583              -8.006              15.083              
C              20.672              -8.167              14.137              
C              20.459              -7.093              13.081              
O              19.337              -6.624              12.873              
C              20.658              -9.55               13.454              
O              19.439              -9.709              12.718              
C              20.778              -10.657             14.488              
H              18.736              -8.587              15.1                
H              21.528              -7.989              14.597              
H              21.436              -9.599              12.797              
H              20.288              -10.398             15.324              
H              20.384              -11.505             14.127              
H              21.743              -10.813             14.71               
H              19.637              -9.882              11.747              
N              21.542              -6.689              12.43               
C              21.465              -5.667              11.402              
C              22.131              -4.377              11.888              
C              21.392              -3.7                13.019              
S              22.087              -2.094              13.405              
C              20.773              -1.42               14.423              
H              22.423              -7.156              12.714              
H              20.491              -5.495              11.201              
H              23.067              -4.592              12.196              
H              22.195              -3.734              11.114              
H              20.404              -3.618              12.761              
H              21.414              -4.313              13.839              
H              21.006              -0.485              14.694              
H              19.918              -1.413              13.904              
H              20.66               -1.985              15.241              
H              21.9461             -5.9959             10.4842             
H              21.242              -0.670094           24.2326             
