345
0.xyz
N              1.509               39.55               34.947              
C              2.106               40.911              34.866              
C              3.331               40.937              33.96               
O              3.36                41.671              32.972              
C              2.485               41.404              36.265              
C              3.338               40.407              37.023              
O              2.846               39.291              37.29               
O              4.499               40.735              37.352              
H              2.236               38.869              34.902              
H              1.408               41.504              34.448              
H              2.995               42.25               36.164              
H              1.647               41.56               36.773              
H              1.016               39.459              35.809              
H              0.88                39.422              34.184              
N              4.342               40.14               34.29               
C              5.55                40.108              33.477              
C              5.385               39.206              32.262              
O              4.724               38.169              32.321              
C              6.749               39.641              34.308              
C              7.226               40.578              35.427              
C              8.406               39.944              36.141              
C              7.62                41.928              34.848              
H              4.2                 39.571              35.137              
H              5.745               41.044              33.154              
H              6.505               38.772              34.736              
H              7.518               39.507              33.687              
H              6.481               40.716              36.069              
H              9.152               39.794              35.49               
H              8.722               40.55               36.872              
H              8.129               39.067              36.535              
H              6.831               42.34               34.391              
H              7.929               42.531              35.584              
H              8.361               41.805              34.186              
N              5.989               39.622              31.157              
C              5.929               38.867              29.919              
C              7.105               37.899              29.849              
O              8.225               38.234              30.242              
C              5.98                39.813              28.693              
C              5.865               39.016              27.402              
C              4.86                40.837              28.782              
H              6.502               40.524              31.255              
H              5.085               38.326              29.918              
H              6.873               40.25               28.69               
H              6.453               38.209              27.454              
H              4.916               38.729              27.27               
H              6.15                39.586              26.631              
H              4.363               40.71               29.64               
H              5.25                41.757              28.753              
H              4.236               40.712              28.011              
N              6.838               36.695              29.353              
C              7.86                35.664              29.21               
C              7.71                34.988              27.858              
O              6.645               35.036              27.247              
C              7.706               34.603              30.301              
C              8.125               35.044              31.687              
C              9.446               34.892              32.12               
C              7.2                 35.598              32.572              
C              9.83                35.275              33.406              
C              7.576               35.987              33.857              
C              8.884               35.821              34.265              
O              9.245               36.19               35.538              
H              5.842               36.552              29.077              
H              8.759               36.104              29.244              
H              6.743               34.331              30.339              
H              8.263               33.81               30.047              
H              10.127              34.503              31.501              
H              6.254               35.719              32.282              
H              10.775              35.158              33.704              
H              6.899               36.383              34.476              
H              8.541               36.786              35.92               
N              8.78                34.36               27.393              
C              8.735               33.644              26.131              
C              8.016               32.338              26.433              
O              8.439               31.579              27.303              
C              10.148              33.362              25.637              
H              9.623               34.424              27.991              
H              8.2                 34.159              25.481              
H              10.692              34.199              25.686              
H              10.568              32.659              26.21               
H              10.113              33.042              24.691              
N              6.917               32.085              25.733              
C              6.163               30.857              25.944              
C              6.502               29.881              24.829              
O              6.487               30.24               23.653              
C              4.675               31.149              25.942              
H              6.653               32.812              25.048              
H              6.435               30.455              26.817              
H              4.322               31.107              26.877              
H              4.511               32.063              25.569              
H              4.2                 30.472              25.379              
N              6.804               28.644              25.198              
C              7.144               27.639              24.207              
C              5.894               27.134              23.506              
O              5.82                27.105              22.273              
C              7.854               26.471              24.88               
C              8.575               25.545              23.93               
C              9.186               24.38               24.658              
O              9.766               24.599              25.748              
O              9.087               23.244              24.147              
H              6.776               28.467              26.215              
H              7.775               28.031              23.527              
H              8.524               26.846              25.502              
H              7.172               25.941              25.359              
H              7.924               25.191              23.289              
H              9.3                 26.044              23.5                
N              4.906               26.734              24.298              
C              3.671               26.224              23.739              
C              2.608               26.007              24.802              
O              2.886               26                  26                  
C              3.927               24.889              23.049              
C              4.355               23.798              24.016              
C              4.71                22.508              23.309              
C              5.223               21.486              24.305              
N              5.75                20.261              23.644              
H              5.094               26.818              25.311              
H              3.317               26.889              23.06               
H              3.088               24.6                22.603              
H              4.65                25.016              22.379              
H              5.156               24.118              24.533              
H              3.605               23.621              24.661              
H              3.899               22.145              22.871              
H              5.422               22.687              22.644              
H              5.956               21.904              24.854              
H              4.472               21.227              24.924              
H              6.688               20.098              23.948              
H              5.178               19.479              23.89               
H              5.736               20.387              22.653              
N              1.381               25.818              24.334              
C              0.242               25.547              25.201              
C              0.007               24.044              25.074              
O              0.007               23.511              23.962              
C              -1.005              26.315              24.714              
C              -0.829              27.813              25.013              
C              -2.26               25.743              25.357              
C              -1.987              28.72               24.509              
H              1.302               25.88               23.293              
H              0.547               25.706              26.123              
H              -1.069              26.205              23.734              
H              -0.747              27.938              26                  
H              0.014               28.128              24.58               
H              -3.063              26.224              25.009              
H              -2.334              24.772              25.138              
H              -2.209              25.857              26.348              
H              -2.826              28.425              24.949              
H              -1.774              29.658              24.752              
H              -2.054              28.619              23.524              
N              -0.191              23.359              26.197              
C              -0.396              21.917              26.162              
C              -1.789              21.49               26.603              
O              -2.18               20.343              26.39               
C              0.655               21.179              27.031              
C              0.599               21.688              28.477              
C              2.054               21.418              26.469              
C              1.32                20.778              29.469              
H              -0.186              23.92               27.063              
H              -0.304              21.641              25.19               
H              0.423               20.215              27.034              
H              1.014               22.592              28.512              
H              -0.357              21.756              28.749              
H              2.722               20.927              27.024              
H              2.094               21.088              25.528              
H              2.257               22.395              26.489              
H              2.28                20.71               29.208              
H              1.243               21.169              30.383              
H              0.897               19.876              29.448              
N              -2.54               22.412              27.196              
C              -3.896              22.111              27.64               
C              -4.78               23.341              27.66               
O              -4.297              24.47               27.745              
C              -3.905              21.548              29.055              
C              -3.059              20.313              29.296              
C              -2.984              20.002              30.767              
H              -2.09               23.337              27.312              
H              -4.296              21.45               26.985              
H              -3.588              22.27               29.692              
H              -4.862              21.323              29.307              
H              -3.474              19.544              28.825              
H              -2.142              20.481              28.954              
O              -3.936              19.494              31.37               
N              -1.857              20.326              31.365              
H              -1.727              20.161              32.373              
H              -1.104              20.745              30.823              
N              -6.087              23.101              27.623              
C              -7.077              24.167              27.685              
C              -8.114              23.757              28.722              
O              -8.528              22.602              28.769              
C              -7.747              24.363              26.325              
C              -8.832              25.428              26.324              
C              -9.425              25.601              24.937              
C              -10.511             26.662              24.925              
N              -11.029             26.863              23.548              
H              -6.339              22.091              27.546              
H              -6.637              25.005              27.984              
H              -7.046              24.628              25.667              
H              -8.157              23.496              26.052              
H              -9.557              25.155              26.955              
H              -8.438              26.296              26.619              
H              -8.703              25.878              24.31               
H              -9.822              24.737              24.645              
H              -11.258             26.369              25.52               
H              -10.13              27.521              25.264              
H              -11.192             25.974              23.12               
H              -11.886             27.377              23.586              
H              -10.357             27.373              23.01               
N              -8.529              24.704              29.553              
C              -9.52               24.424              30.584              
C              -10.515             25.571              30.668              
O              -10.124             26.733              30.709              
C              -8.836              24.24               31.942              
C              -9.791              23.905              33.076              
C              -9.048              23.625              34.371              
N              -8.358              24.804              34.89               
C              -7.585              24.798              35.973              
N              -7.402              23.673              36.651              
N              -6.996              25.913              36.384              
H              -8.098              25.635              29.409              
H              -10.014             23.586              30.341              
H              -8.179              23.497              31.861              
H              -8.368              25.088              32.172              
H              -10.407             24.674              33.23               
H              -10.317             23.092              32.838              
H              -9.712              23.308              35.047              
H              -8.379              22.904              34.194              
H              -8.475              25.673              34.399              
H              -7.817              22.817              36.356              
H              -6.83               23.682              37.482              
H              -7.124              26.759              35.857              
H              -6.432              25.914              37.204              
N              -11.802             25.243              30.675              
C              -12.833             26.264              30.769              
C              -13.71              25.964              31.972              
O              -14.332             24.908              32.045              
C              -13.71              26.309              29.494              
C              -14.708             27.463              29.588              
C              -12.831             26.472              28.267              
H              -11.998             24.23               30.61               
H              -12.389             27.147              30.921              
H              -14.238             25.471              29.463              
H              -14.218             28.308              29.796              
H              -15.186             27.559              28.716              
H              -15.368             27.271              30.313              
H              -12.293             25.64               28.131              
H              -13.407             26.633              27.465              
H              -12.217             27.25               28.4                
N              -13.731             26.887              32.925              
C              -14.539             26.732              34.126              
C              -15.296             28.011              34.425              
O              -14.705             29.083              34.535              
C              -13.669             26.363              35.328              
C              -13.299             24.891              35.399              
C              -12.662             24.544              36.741              
C              -13.587             24.882              37.909              
N              -13.041             24.418              39.213              
H              -13.13              27.716              32.742              
H              -15.202             25.988              33.979              
H              -12.826             26.897              35.279              
H              -14.169             26.602              36.159              
H              -14.124             24.339              35.283              
H              -12.649             24.68               34.671              
H              -12.47              23.569              36.763              
H              -11.822             25.066              36.844              
H              -13.716             25.878              37.939              
H              -14.479             24.447              37.75               
H              -13.003             23.419              39.22               
H              -12.121             24.789              39.338              
H              -13.634             24.736              39.953              
N              -16.611             27.888              34.553              
C              -17.466             29.034              34.833              
C              -17.198             30.193              33.88               
O              -17.114             31.343              34.303              
C              -17.28              29.487              36.285              
C              -17.508             28.375              37.282              
C              -17.596             28.882              38.697              
C              -17.843             27.727              39.648              
N              -18.082             28.205              41.038              
H              -16.972             26.919              34.438              
H              -18.433             28.752              34.734              
H              -16.349             29.821              36.387              
H              -17.931             30.217              36.466              
H              -18.365             27.899              37.051              
H              -16.751             27.715              37.217              
H              -16.74              29.316              38.943              
H              -18.351             29.519              38.772              
H              -18.645             27.212              39.336              
H              -17.044             27.121              39.642              
H              -18.01              27.434              41.67               
H              -17.399             28.896              41.273              
H              -18.996             28.604              41.098              
N              -17.068             29.873              32.595              
C              -16.84              30.887              31.585              
C              -15.426             31.422              31.49               
O              -15.113             32.171              30.567              
H              -17.143             28.859              32.39               
H              -17.116             30.512              30.666              
H              -17.483             31.675              31.751              
N              -14.578             31.037              32.44               
C              -13.185             31.481              32.48               
C              -12.299             30.523              31.691              
O              -12.132             29.368              32.074              
C              -12.676             31.552              33.937              
C              -11.223             31.989              33.961              
C              -13.537             32.527              34.738              
H              -14.99              30.394              33.152              
H              -13.132             32.384              32.043              
H              -12.713             30.633              34.312              
H              -10.63              31.184              34.006              
H              -11.014             32.508              33.131              
H              -11.059             32.566              34.762              
H              -13.527             32.258              35.7                
H              -13.165             33.449              34.64               
H              -14.473             32.5                34.389              
N              -11.735             31.008              30.588              
C              -10.871             30.19               29.743              
C              -9.409              30.302              30.172              
O              -8.887              31.403              30.336              
C              -10.992             30.608              28.264              
C              -10.071             29.761              27.404              
C              -12.434             30.469              27.806              
H              -11.96              32.002              30.385              
H              -11.15              29.227              29.846              
H              -10.679             31.548              28.19               
H              -9.5                30.356              26.837              
H              -9.485              29.201              27.99               
H              -10.617             29.165              26.814              
H              -12.511             30.774              26.857              
H              -12.712             29.511              27.874              
H              -13.022             31.031              28.388              
N              -8.762              29.154              30.368              
C              -7.359              29.119              30.777              
C              -6.561              28.145              29.929              
O              -7.098              27.157              29.424              
C              -7.224              28.712              32.243              
C              -8.022              29.557              33.206              
C              -7.848              29.089              34.631              
O              -8.084              27.889              34.895              
O              -7.49               29.919              35.49               
H              -9.332              28.301              30.208              
H              -6.962              30.043              30.695              
H              -7.541              27.78               32.323              
H              -6.271              28.792              32.488              
H              -7.697              30.48               33.154              
H              -8.972              29.476              32.98               
N              -5.268              28.424              29.781              
H              -4.95               29.285              30.268              
H              -4.65184            27.8335             29.2328             
