223
2.xyz
C              -3.668              8.18                -17.991             
S              -2.081              7.283               -17.94              
H              -4.354              7.57                -18.376             
H              -3.552              8.977               -18.577             
C              4.303               4.157               -16.296             
O              4.256               4.831               -17.325             
N              3.218               3.792               -15.619             
C              1.876               4.171               -16.051             
C              1.732               5.687               -16.176             
O              0.965               6.179               -17.002             
C              0.834               3.634               -15.066             
C              0.85                2.116               -14.868             
C              0.52                1.755               -13.428             
C              -0.131              1.448               -15.819             
H              3.406               3.223               -14.77              
H              1.702               3.761               -16.956             
H              1.006               4.05                -14.183             
H              -0.063              3.88                -15.406             
H              1.76                1.769               -15.098             
H              -0.39               2.1                 -13.196             
H              0.536               0.76                -13.32              
H              1.197               2.166               -12.816             
H              0.124               1.656               -16.764             
H              -0.111              0.457               -15.68              
H              -1.055              1.79                -15.642             
N              2.468               6.422               -15.348             
C              2.414               7.879               -15.365             
C              3.038               8.445               -16.638             
O              2.593               9.47                -17.155             
C              3.127               8.45                -14.138             
C              2.307               8.363               -12.862             
C              3.058               8.876               -11.65              
O              3.091               10.108              -11.449             
O              3.615               8.046               -10.902             
H              3.072               5.878               -14.702             
H              1.454               8.184               -15.299             
H              3.949               7.93                -14.001             
H              3.309               9.399               -14.312             
H              1.505               8.919               -12.973             
H              2.088               7.419               -12.698             
N              4.072               7.775               -17.139             
C              4.759               8.216               -18.35              
C              3.801               8.292               -19.534             
O              3.816               9.255               -20.298             
C              5.909               7.267               -18.686             
C              6.978               7.191               -17.61              
S              8.386               6.181               -18.106             
C              7.55                4.729               -18.737             
H              4.343               6.927               -16.604             
H              5.123               9.141               -18.185             
H              5.537               6.341               -18.832             
H              6.342               7.57                -19.545             
H              7.278               8.144               -17.381             
H              6.553               6.824               -16.752             
H              6.61                4.965               -18.989             
H              8.033               4.387               -19.545             
H              7.536               4.017               -18.033             
N              2.978               7.261               -19.683             
C              2.022               7.199               -20.78              
C              0.935               8.263               -20.639             
O              0.369               8.717               -21.633             
C              1.394               5.807               -20.85              
C              2.413               4.701               -21.007             
C              3.037               4.475               -22.227             
C              2.757               3.889               -19.934             
C              3.973               3.469               -22.376             
C              3.693               2.882               -20.073             
C              4.297               2.675               -21.296             
O              5.232               1.674               -21.44              
H              3.074               6.518               -18.963             
H              2.516               7.372               -21.643             
H              0.889               5.649               -20.009             
H              0.782               5.779               -21.633             
H              2.804               5.052               -23.015             
H              2.32                4.037               -19.047             
H              4.415               3.318               -23.264             
H              3.932               2.304               -19.29              
H              5.231               1.105               -20.62              
N              0.647               8.662               -19.402             
C              -0.373              9.675               -19.148             
C              -0.01               10.992              -19.83              
O              1.112               11.482              -19.699             
C              -0.547              9.901               -17.645             
S              -0.926              8.392               -16.691             
H              1.197               8.202               -18.655             
H              -1.243              9.353               -19.536             
H              0.299               10.287              -17.285             
H              -1.297              10.546              -17.51              
N              -0.967              11.56               -20.557             
C              -0.748              12.82               -21.26              
C              -0.553              13.978              -20.274             
O              -0.905              13.858              -19.1               
C              -1.913              13.11               -22.194             
H              -1.865              11.04               -20.58              
H              0.084               12.74               -21.823             
H              -2.71               12.576              -21.911             
H              -2.136              14.084              -22.158             
H              -1.662              12.861              -23.129             
N              0.015               15.126              -20.725             
C              0.239               16.28               -19.847             
C              -1.042              17.059              -19.559             
O              -1.151              17.73               -18.532             
C              1.217               17.14               -20.645             
C              0.899               16.842              -22.069             
C              0.482               15.396              -22.107             
H              0.68                15.988              -18.982             
H              1.08                18.114              -20.441             
H              2.165               16.894              -20.428             
H              0.155               17.437              -22.399             
H              1.706               16.996              -22.652             
H              -0.261              15.244              -22.759             
H              1.251               14.796              -22.336             
N              -2.009              16.971              -20.47              
C              -3.28               17.672              -20.311             
C              -3.984              17.257              -19.021             
O              -3.563              16.317              -18.347             
C              -4.189              17.396              -21.513             
C              -4.692              15.953              -21.627             
C              -6.054              15.81               -20.963             
C              -4.763              15.518              -23.084             
H              -1.784              16.372              -21.287             
H              -3.098              18.662              -20.268             
H              -4.985              17.982              -21.435             
H              -3.677              17.598              -22.336             
H              -4.038              15.346              -21.178             
H              -6.71               16.419              -21.41              
H              -6.368              14.864              -21.046             
H              -5.981              16.053              -19.995             
H              -3.852              15.575              -23.495             
H              -5.093              14.575              -23.136             
H              -5.39               16.118              -23.582             
N              -5.056              17.968              -18.684             
C              -5.819              17.676              -17.477             
C              -7.303              18.011              -17.673             
O              -7.629              19.026              -18.29              
C              -5.258              18.466              -16.292             
C              -5.855              18.063              -14.954             
C              -5.335              18.939              -13.825             
C              -6.076              20.264              -13.764             
N              -5.657              21.081              -12.589             
H              -5.296              18.734              -19.343             
H              -5.74               16.695              -17.267             
H              -4.274              18.315              -16.256             
H              -5.449              19.432              -16.444             
H              -6.851              18.153              -15                 
H              -5.615              17.111              -14.761             
H              -5.465              18.462              -12.962             
H              -4.369              19.122              -13.977             
H              -5.891              20.78               -14.605             
H              -7.062              20.084              -13.704             
H              -5.479              20.477              -11.813             
H              -4.827              21.587              -12.818             
H              -6.387              21.722              -12.355             
N              -8.233              17.171              -17.155             
C              -9.672              17.422              -17.301             
C              -10.138             18.618              -16.477             
O              -9.325              19.375              -15.95              
C              -10.317             16.134              -16.784             
C              -9.319              15.565              -15.838             
C              -7.971              15.924              -16.397             
H              -9.914              17.544              -18.277             
H              -11.183             16.336              -16.317             
H              -10.499             15.501              -17.542             
H              -9.44               15.956              -14.917             
H              -9.424              14.565              -15.772             
H              -7.304              16.093              -15.672             
H              -7.623              15.213              -17.009             
N              -11.452             18.781              -16.373             
C              -12.029             19.885              -15.613             
C              -12.238             19.498              -14.153             
O              -12.499             18.336              -13.84              
C              -13.345             20.324              -16.238             
H              -12.022             18.069              -16.87              
H              -11.397             20.669              -15.65              
H              -13.799             19.535              -16.651             
H              -13.936             20.715              -15.533             
H              -13.168             21.011              -16.942             
N              -12.123             20.479              -13.264             
C              -12.3               20.241              -11.837             
C              -12.484             21.557              -11.086             
O              -12.009             22.605              -11.524             
C              -11.098             19.482              -11.272             
C              -11.362             18.85               -9.914              
C              -10.266             17.867              -9.534              
C              -10.424             16.545              -10.265             
N              -9.307              15.608              -9.966              
H              -11.901             21.41               -13.667             
H              -13.121             19.675              -11.699             
H              -10.856             18.759              -11.913             
H              -10.341             20.123              -11.179             
H              -11.404             19.571              -9.221              
H              -12.236             18.365              -9.943              
H              -9.384              18.26               -9.775              
H              -10.311             17.696              -8.555              
H              -11.292             16.122              -9.989              
H              -10.451             16.72               -11.254             
H              -8.593              15.712              -10.658             
H              -8.932              15.817              -9.063              
H              -9.65               14.669              -9.977              
N              -13.177             21.494              -9.955              
C              -13.424             22.681              -9.143              
C              -12.267             22.933              -8.181              
O              -11.821             22.027              -7.48               
C              -14.728             22.527              -8.359              
O              -15.078             23.734              -7.704              
H              -13.52              20.547              -9.704              
H              -13.491             23.473              -9.759              
H              -15.456             22.279              -8.992              
H              -14.609             21.811              -7.677              
H              -14.251             24.26               -7.51               
N              -11.786             24.172              -8.156              
C              -10.681             24.544              -7.283              
C              -10.705             26.037              -6.971              
O              -10.824             26.837              -7.924              
C              -9.354              24.157              -7.917              
O              -10.605             26.394              -5.779              
H              -12.258             24.836              -8.8                
H              -10.764             24.035              -6.417              
H              -9.405              23.217              -8.253              
H              -9.156              24.772              -8.68               
H              -8.625              24.227              -7.237              
H              -4.01575            8.51649             -17.028             
H              5.2383              3.82685             -15.9058            
