258
1.xyz
C              18.293              26.263              -2.625              
O              19.5                26.135              -2.574              
N              17.595              25.73               -3.59               
C              18.28               24.948              -4.658              
C              17.544              25.146              -5.986              
O              16.33               25.193              -6.032              
C              18.271              23.463              -4.286              
C              18.955              23.273              -2.93               
C              17.908              23.354              -1.817              
C              19.636              21.905              -2.891              
H              16.582              25.876              -3.571              
H              19.208              25.298              -4.75               
H              17.35               23.178              -4.195              
H              18.785              22.98               -4.948              
H              19.628              23.992              -2.8                
H              17.226              22.636              -1.952              
H              18.356              23.23               -0.933              
H              17.464              24.248              -1.846              
H              20.318              21.854              -3.62               
H              20.082              21.782              -2.005              
H              18.95               21.19               -3.023              
N              18.267              25.263              -7.065              
C              17.606              25.458              -8.387              
C              17.116              24.109              -8.918              
O              17.863              23.154              -8.999              
C              18.607              26.061              -9.376              
C              18.968              27.481              -8.935              
C              19.881              28.123              -9.981              
O              19.458              28.987              -10.724             
N              21.124              27.737              -10.072             
H              19.284              25.215              -6.955              
H              16.811              26.042              -8.239              
H              19.427              25.521              -9.375              
H              18.192              26.111              -10.265             
H              18.143              28.014              -8.868              
H              19.451              27.436              -8.079              
H              21.763              28.111              -10.746             
H              21.461              27.009              -9.414              
N              15.865              24.023              -9.281              
C              15.329              22.735              -9.806              
C              15.929              22.462              -11.187             
O              16.039              23.345              -12.013             
C              13.807              22.824              -9.919              
C              13.21               23.163              -8.552              
C              13.254              21.48               -10.397             
C              13.774              22.207              -7.5                
H              15.292              24.866              -9.187              
H              15.676              22.03               -9.194              
H              13.584              23.563              -10.542             
H              13.457              24.079              -8.314              
H              12.238              23.045              -8.594              
H              12.261              21.54               -10.471             
H              13.644              21.261              -11.288             
H              13.499              20.771              -9.74               
H              14.765              22.308              -7.47               
H              13.381              22.434              -6.613              
H              13.534              21.273              -7.75               
N              16.318              21.242              -11.444             
C              16.91               20.914              -12.772             
C              15.838              20.304              -13.672             
O              15.611              20.752              -14.778             
C              18.051              19.913              -12.588             
C              18.516              19.413              -13.957             
C              19.219              20.595              -11.871             
H              16.196              20.546              -10.703             
H              17.218              21.77               -13.183             
H              17.695              19.125              -12.103             
H              18.094              19.968              -14.672             
H              19.51               19.489              -14.016             
H              18.245              18.458              -14.069             
H              19.191              20.355              -10.902             
H              20.077              20.281              -12.275             
H              19.134              21.584              -11.978             
N              15.177              19.285              -13.204             
C              14.116              18.64               -14.029             
C              13.183              17.837              -13.121             
O              13.051              18.117              -11.947             
C              14.764              17.705              -15.052             
C              13.9                17.65               -16.313             
O              13.424              16.598              -16.693             
N              13.674              18.747              -16.983             
H              15.421              18.96               -12.262             
H              13.579              19.378              -14.43              
H              15.646              18.062              -15.294             
H              14.815              16.802              -14.669             
H              14.092              19.611              -16.642             
H              13.117              18.757              -17.801             
N              12.536              16.838              -13.656             
C              11.613              16.016              -12.826             
C              10.479              16.894              -12.293             
O              10.601              17.524              -11.261             
C              12.384              15.412              -11.651             
C              13.42               14.418              -12.177             
H              12.696              16.658              -14.653             
H              11.205              15.341              -13.437             
H              12.855              16.132              -11.177             
H              11.754              14.929              -11.073             
O              14.322              14.787              -12.903             
N              13.329              13.161              -11.839             
H              12.559              12.881              -11.235             
H              13.981              12.485              -12.153             
N              9.377               16.94               -12.989             
C              8.236               17.777              -12.524             
C              7.347               16.947              -11.596             
O              6.559               17.475              -10.837             
C              7.42                18.244              -13.731             
O              6.36                19.081              -13.289             
C              6.844               17.03               -14.461             
H              9.343               16.383              -13.849             
H              8.608               18.545              -12.009             
H              8.025               18.79               -14.348             
H              7.572               16.365              -14.633             
H              6.133               16.605              -13.898             
H              6.447               17.319              -15.333             
H              5.528               18.54               -13.117             
N              7.468               15.649              -11.653             
C              6.634               14.78               -10.776             
C              7.48                13.613              -10.265             
O              8.693               13.679              -10.239             
C              5.445               14.24               -11.574             
C              4.141               14.694              -10.915             
C              3.169               15.184              -11.991             
O              3.638               15.648              -13.017             
O              1.973               15.087              -11.77              
H              8.152               15.273              -12.319             
H              6.298               15.319              -10.008             
H              5.477               14.626              -12.458             
H              5.472               13.277              -11.538             
H              3.736               13.931              -10.48              
H              4.335               15.442              -10.334             
N              6.853               12.544              -9.857              
C              7.624               11.376              -9.348              
C              7.869               11.546              -7.848              
O              6.953               11.782              -7.084              
H              5.829               12.555              -9.906              
H              7.099               10.546              -9.512              
H              8.495               11.329              -9.829              
N              9.095               11.431              -7.417              
C              9.389               11.587              -5.965              
C              10.881              11.859              -5.762              
O              11.418              11.643              -4.693              
C              9.001               10.304              -5.226              
C              7.847               10.599              -4.266              
O              7.844               11.672              -3.686              
O              6.985               9.745               -4.128              
H              9.82                11.234              -8.113              
H              8.893               12.399              -5.659              
H              8.7                 9.646               -5.885              
H              9.772               10.001              -4.706              
N              11.56               12.332              -6.773              
C              13.016              12.612              -6.619              
C              13.483              13.574              -7.713              
O              13.577              13.217              -8.872              
C              13.798              11.302              -6.716              
C              13.8                10.615              -5.349              
C              13.049              9.552               -5.018              
C              14.536              10.995              -4.307              
N              13.371              9.324               -3.743              
C              14.29               10.178              -3.22               
C              15.44               12.031              -4.202              
C              14.95               10.4                -2.029              
C              16.1                12.253              -3.011              
C              15.855              11.437              -1.924              
H              11.051              12.493              -7.645              
H              13.136              13.066              -5.738              
H              13.352              10.698              -7.333              
H              14.726              11.489              -6.938              
H              12.422              9.069               -5.578              
H              12.955              8.548               -3.174              
H              15.628              12.634              -4.991              
H              14.765              9.795               -1.226              
H              16.748              13.002              -2.946              
H              16.328              11.593              -1.066              
N              13.778              14.795              -7.354              
C              14.242              15.785              -8.368              
C              15.715              16.121              -8.119              
O              16.246              15.877              -7.053              
C              13.414              17.067              -8.251              
C              11.925              16.724              -8.21               
C              11.375              15.608              -8.715              
C              10.98               17.502              -7.689              
N              10.071              15.764              -8.473              
C              9.738               16.917              -7.836              
C              11.098              18.726              -7.062              
C              8.614               17.558              -7.356              
C              9.974               19.365              -6.58               
C              8.732               18.783              -6.728              
H              13.674              15.026              -6.36               
H              14.174              15.346              -9.26               
H              13.623              17.517              -7.412              
H              13.555              17.621              -9.041              
H              11.824              14.868              -9.151              
H              9.346               15.058              -8.748              
H              12.001              19.163              -6.95               
H              7.696               17.124              -7.468              
H              10.071              20.244              -6.129              
H              7.921               19.24               -6.385              
N              16.378              16.683              -9.093              
C              17.814              17.036              -8.912              
C              17.965              18.557              -8.943              
O              17.595              19.205              -9.901              
C              18.641              16.416              -10.041             
C              20.095              16.876              -9.921              
C              20.833              15.988              -8.919              
C              20.776              16.774              -11.286             
H              15.867              16.862              -9.964              
H              18.103              16.702              -8.02               
H              18.625              15.453              -9.936              
H              18.295              16.74               -10.885             
H              20.114              17.818              -9.602              
H              20.808              15.041              -9.236              
H              21.782              16.292              -8.844              
H              20.388              16.055              -8.027              
H              20.294              17.356              -11.941             
H              21.726              17.075              -11.205             
H              20.75               15.825              -11.599             
N              18.505              19.135              -7.905              
C              18.673              20.615              -7.888              
C              20.153              20.967              -7.722              
O              20.943              20.178              -7.241              
C              17.876              21.204              -6.723              
H              18.796              18.533              -7.131              
H              18.349              20.976              -8.761              
H              17.295              20.495              -6.328              
H              18.508              21.544              -6.029              
H              17.309              21.955              -7.057              
N              20.531              22.151              -8.118              
C              21.956              22.567              -7.989              
C              22.057              23.676              -6.934              
O              21.498              24.745              -7.086              
C              22.455              23.067              -9.358              
C              23.526              24.151              -9.188              
H              19.808              22.763              -8.513              
H              22.478              21.781              -7.674              
H              22.861              22.315              -9.857              
H              21.7                23.464              -9.86               
N              24.766              23.993              -9.399              
C              23.397              25.472              -8.801              
C              25.404              25.081              -9.18               
N              24.604              26.061              -8.797              
H              25.232              23.119              -9.707              
H              22.512              25.902              -8.562              
H              26.419              25.201              -9.282              
N              22.766              23.426              -5.867              
C              22.903              24.46               -4.802              
C              23.539              25.722              -5.393              
O              24.271              25.664              -6.362              
C              23.792              23.92               -3.681              
O              23.129              22.847              -3.028              
H              23.21               22.504              -5.806              
H              21.985              24.69               -4.488              
H              24.637              23.588              -4.072              
H              23.958              24.643              -3.027              
H              22.916              23.111              -2.089              
N              23.266              26.86               -4.817              
H              22.642              26.835              -4.004              
H              23.674              27.7357             -5.18337            
H              17.7625             26.8165             -1.88095            
