381
1.xyz
C              -1.854              17.823              -0.227              
C              -1.064              18.955              -0.889              
O              -1.636              19.98               -1.265              
C              -2.898              17.248              -1.189              
C              -3.617              16.001              -0.665              
C              -4.774              15.636              -1.588              
C              -2.622              14.85               -0.563              
H              -1.216              17.138              0.084               
H              -3.584              17.942              -1.346              
H              -2.438              16.997              -2.025              
H              -3.969              16.189              0.249               
H              -4.422              15.451              -2.506              
H              -5.236              14.822              -1.237              
H              -5.422              16.396              -1.626              
H              -1.886              15.101              0.066               
H              -3.09               14.035              -0.221              
H              -2.238              14.66               -1.467              
N              0.252               18.777              -1.01               
C              1.125               19.799              -1.608              
C              0.583               20.26               -2.953              
O              0.703               21.429              -3.326              
C              2.541               19.253              -1.771              
H              0.605               17.869              -0.652              
H              1.164               20.589              -0.985              
H              2.901               19.524              -2.663              
H              3.124               19.622              -1.049              
H              2.522               18.256              -1.708              
N              0.008               19.256              -3.688              
C              -0.509              19.482              -5.064              
C              -1.989              19.352              -5.183              
O              -2.559              18.289              -5.41               
C              0.079               18.523              -6.083              
C              1.544               18.861              -6.356              
C              -0.712              18.539              -7.371              
C              1.758               19.725              -7.58               
H              -0.031              18.347              -3.205              
H              -0.264              20.444              -5.281              
H              0.045               17.601              -5.706              
H              1.914               19.334              -5.557              
H              2.046               18.004              -6.478              
H              -0.337              17.864              -8.007              
H              -1.669              18.317              -7.183              
H              -0.661              19.447              -7.788              
H              1.271               20.59               -7.464              
H              2.734               19.903              -7.693              
H              1.409               19.249              -8.386              
N              -2.536              20.492              -5.002              
C              -3.458              21.661              -4.851              
C              -2.748              22.729              -4.006              
O              -2.049              23.609              -4.505              
C              -4.938              21.378              -4.6                
C              -5.089              20.262              -5.459              
C              -3.779              19.653              -5.255              
H              -3.715              22.016              -5.738              
H              -5.081              21.161              -3.644              
H              -5.481              22.16               -4.871              
H              -5.819              19.654              -5.166              
H              -5.219              20.53               -6.407              
H              -3.812              18.916              -4.463              
H              -3.53               18.982              -6.07               
N              -2.964              22.628              -2.706              
C              -2.537              23.612              -1.72               
C              -1.32               24.512              -1.937              
O              -1.427              25.726              -1.773              
C              -2.397              22.921              -0.367              
O              -3.634              22.362              0.043               
H              -3.488              21.749              -2.431              
H              -3.359              24.25               -1.548              
H              -1.723              22.193              -0.444              
H              -2.106              23.591              0.308               
H              -3.529              21.949              0.947               
N              -0.175              23.943              -2.298              
C              1.027               24.767              -2.441              
C              1.691               24.823              -3.81               
O              2.83                25.277              -3.928              
C              2.067               24.318              -1.418              
C              1.602               24.435              0.011               
C              1.662               25.652              0.684               
C              1.094               23.327              0.694               
C              1.236               25.768              1.997               
C              0.66                23.435              2.012               
C              0.739               24.661              2.657               
O              0.335               24.794              3.964               
H              -0.205              22.934              -2.459              
H              0.773               25.735              -2.175              
H              2.291               23.363              -1.598              
H              2.88                24.885              -1.529              
H              2.021               26.46               0.21                
H              1.041               22.447              0.23                
H              1.287               26.654              2.466               
H              0.296               22.638              2.488               
H              1.069               25.216              4.493               
N              0.986               24.389              -4.844              
C              1.561               24.388              -6.178              
C              1.15                25.574              -7.05               
O              1.721               25.785              -8.116              
C              1.217               23.071              -6.874              
O              -0.177              22.829              -6.834              
H              0.031               24.065              -4.626              
H              2.578               24.416              -6.083              
H              1.511               23.123              -7.823              
H              1.689               22.329              -6.407              
H              -0.553              23.183              -5.978              
N              0.162               26.346              -6.605              
C              -0.295              27.512              -7.36               
C              -0.802              28.555              -6.376              
O              -1.827              29.192              -6.601              
C              -1.429              27.13               -8.311              
O              -2.605              26.817              -7.584              
H              -0.246              26.056              -5.698              
H              0.489               27.896              -7.843              
H              -1.615              27.897              -8.914              
H              -1.152              26.334              -8.837              
H              -2.387              26.748              -6.612              
N              -0.057              28.735              -5.293              
C              -0.432              29.674              -4.25               
C              0.394               30.961              -4.293              
O              1.618               30.922              -4.35               
C              -0.279              28.972              -2.898              
C              -0.785              29.751              -1.711              
C              -0.032              30.789              -1.16               
C              -2.015              29.44               -1.127              
C              -0.489              31.499              -0.052              
C              -2.484              30.145              -0.019              
C              -1.713              31.169              0.512               
O              -2.156              31.851              1.618               
H              0.806               28.153              -5.258              
H              -1.405              29.927              -4.381              
H              -0.779              28.104              -2.941              
H              0.695               28.782              -2.756              
H              0.85                31.028              -1.565              
H              -2.567              28.704              -1.508              
H              0.06                32.24               0.331               
H              -3.364              29.914              0.387               
H              -1.547              32.623              1.795               
N              -0.286              32.101              -4.277              
C              0.407               33.376              -4.298              
C              1.328               33.589              -5.484              
O              1.034               33.159              -6.598              
H              -1.314              32.001              -4.249              
H              -0.285              34.134              -4.274              
H              0.95                33.476              -3.433              
N              2.453               34.254              -5.242              
C              3.413               34.541              -6.299              
C              4.595               33.595              -6.368              
O              5.22                33.467              -7.423              
C              3.939               35.968              -6.155              
S              2.63                37.216              -6.343              
H              2.584               34.545              -4.254              
H              2.917               34.493              -7.194              
H              4.332               36.069              -5.253              
H              4.616               36.125              -6.86               
N              4.903               32.93               -5.257              
C              6.048               32.031              -5.227              
C              5.801               30.553              -4.974              
O              6.729               29.747              -5.09               
C              7.085               32.552              -4.228              
C              7.711               33.837              -4.691              
C              7.127               35.067              -4.395              
C              8.846               33.821              -5.497              
C              7.661               36.253              -4.895              
C              9.382               34.997              -6.005              
C              8.788               36.207              -5.7                
O              9.337               37.368              -6.195              
H              4.282               33.103              -4.453              
H              6.536               32.115              -6.141              
H              6.629               32.714              -3.365              
H              7.795               31.87               -4.136              
H              6.313               35.103              -3.816              
H              9.283               32.949              -5.713              
H              7.234               37.128              -4.672              
H              10.194              34.967              -6.589              
H              8.771               38.142              -5.917              
N              4.577               30.178              -4.62               
C              4.314               28.767              -4.393              
C              3.903               28.091              -5.693              
O              2.836               28.353              -6.25               
H              3.886               30.923              -4.529              
H              5.161               28.333              -4.07               
N              4.743               27.203              -6.152              
C              4.56                26.493              -7.396              
C              5.659               27.029              -8.279              
O              6.842               26.88               -7.967              
H              5.584               27.042              -5.529              
H              4.683               25.529              -7.258              
H              3.685               26.708              -7.784              
N              5.285               27.647              -9.388              
C              6.279               28.247              -10.261             
C              6.113               29.736              -9.994              
O              4.99                30.238              -9.895              
C              5.985               27.932              -11.729             
C              7.088               27.2                -12.486             
C              6.914               26.392              -13.575             
C              8.51                27.227              -12.235             
N              8.123               25.911              -14.012             
C              9.121               26.402              -13.21              
C              9.325               27.859              -11.28              
C              10.507              26.199              -13.269             
C              10.712              27.655              -11.34              
C              11.282              26.828              -12.326             
H              4.271               27.664              -9.568              
H              7.166               27.985              -9.941              
H              5.172               27.353              -11.785             
H              5.822               28.786              -12.223             
H              6.031               26.18               -13.995             
H              8.258               25.299              -14.792             
H              8.938               28.44               -10.575             
H              10.9                25.612              -13.98              
H              11.291              28.104              -10.673             
H              12.274              26.703              -12.331             
N              7.226               30.439              -9.853              
C              7.158               31.863              -9.595              
C              8.537               32.471              -9.664              
O              9.532               31.791              -9.422              
H              8.103               29.906              -9.94               
H              6.562               32.301              -10.277             
H              6.765               32.022              -8.682              
N              8.603               33.753              -9.997              
C              9.886               34.414              -10.084             
C              9.735               35.918              -10.092             
O              10.65               36.637              -10.498             
H              7.698               34.21               -10.179             
H              10.462              34.14               -9.299              
H              10.361              34.121              -10.928             
N              8.578               36.401              -9.645              
C              8.322               37.836              -9.612              
C              7.349               38.265              -8.525              
O              6.646               37.448              -7.929              
C              7.761               38.312              -10.954             
C              8.668               38.102              -12.143             
C              8.01                38.631              -13.406             
C              8.897               38.431              -14.623             
N              8.275               38.999              -15.855             
H              7.897               35.688              -9.332              
H              9.208               38.32               -9.463              
H              6.9                 37.822              -11.12              
H              7.562               39.294              -10.874             
H              9.524               38.592              -11.997             
H              8.846               37.129              -12.256             
H              7.155               38.143              -13.553             
H              7.836               39.605              -13.296             
H              9.778               38.882              -14.463             
H              9.052               37.45               -14.757             
H              8.544               38.448              -16.644             
H              7.281               38.986              -15.758             
H              8.589               39.939              -15.979             
N              7.317               39.572              -8.289              
C              6.411               40.138              -7.314              
C              6.835               40.062              -5.866              
O              7.918               39.579              -5.531              
H              7.984               40.132              -8.854              
H              6.234               41.128              -7.558              
H              5.486               39.684              -7.415              
N              5.951               40.558              -5.008              
C              6.159               40.573              -3.569              
C              5.284               39.477              -2.967              
O              4.087               39.417              -3.242              
C              5.726               41.928              -2.973              
O              6.421               42.99               -3.641              
C              6.029               41.981              -1.483              
H              5.084               40.94               -5.462              
H              7.11                40.355              -3.378              
H              4.727               42.052              -3.132              
H              5.234               42.337              -0.987              
H              6.241               41.061              -1.146              
H              6.815               42.58               -1.317              
H              6.055               43.117              -4.569              
N              5.872               38.587              -2.149              
C              5.08                37.514              -1.539              
C              3.807               38.079              -0.917              
O              3.852               39.071              -0.187              
C              6.035               36.934              -0.503              
C              7.365               37.076              -1.181              
C              7.291               38.476              -1.77               
H              4.863               36.803              -2.214              
H              6.009               37.46               0.34                
H              5.829               35.979              -0.322              
H              8.105               37.011              -0.524              
H              7.469               36.399              -1.898              
H              7.531               39.163              -1.092              
H              7.879               38.56               -2.569              
N              2.679               37.438              -1.215              
C              1.37                37.868              -0.731              
C              1.145               37.752              0.776               
O              0.478               38.6                1.372               
C              0.277               37.086              -1.461              
C              0.299               37.248              -2.976              
C              -0.595              38.391              -3.443              
C              -0.025              39.761              -3.125              
N              -0.921              40.85               -3.615              
H              2.811               36.599              -1.826              
H              1.231               38.85               -1.001              
H              0.391               36.117              -1.249              
H              -0.61               37.401              -1.125              
H              1.239               37.433              -3.27               
H              -0.017              36.397              -3.4                
H              -0.716              38.318              -4.435              
H              -1.486              38.304              -2.995              
H              0.083               39.848              -2.133              
H              0.871               39.853              -3.563              
H              -0.602              41.162              -4.509              
H              -1.853              40.499              -3.694              
H              -0.901              41.61               -2.967              
N              1.679               36.7                1.388               
C              1.523               36.499              2.824               
C              2.65                35.629              3.374               
O              3.605               35.317              2.659               
C              0.162               35.859              3.132               
C              0.016               34.469              2.544               
O              0.983               33.978              1.923               
O              -1.07               33.868              2.707               
H              2.202               36.053              0.771               
H              1.607               37.4                3.263               
H              0.069               35.801              4.12                
H              -0.544              36.445              2.751               
N              2.536               35.24               4.641               
C              3.552               34.419              5.293               
C              3.843               33.11               4.555               
O              5.004               32.747              4.372               
C              3.137               34.128              6.728               
H              1.672               35.567              5.12                
H              4.416               34.953              5.347               
H              2.191               34.42               6.868               
H              3.212               33.147              6.905               
H              3.735               34.626              7.356               
N              2.794               32.392              4.157               
C              2.962               31.13               3.431               
C              3.706               31.361              2.119               
O              4.599               30.595              1.754               
C              1.596               30.479              3.129               
O              0.997               30.065              4.361               
C              1.758               29.261              2.211               
H              1.871               32.793              4.399               
H              3.508               30.507              4                   
H              0.991               31.174              2.697               
H              1.826               29.566              1.261               
H              2.588               28.762              2.461               
H              0.965               28.659              2.311               
H              1.702               29.752              5.006               
N              3.331               32.419              1.411               
C              3.978               32.752              0.149               
C              5.442               33.098              0.428               
O              6.323               32.812              -0.383              
C              3.257               33.935              -0.505              
C              3.516               34.035              -1.998              
O              4.012               33.051              -2.608              
O              3.2                 35.101              -2.566              
H              2.558               32.972              1.824               
H              3.977               31.929              -0.415              
H              2.281               33.819              -0.357              
H              3.576               34.768              -0.069              
N              5.702               33.708              1.582               
C              7.076               34.049              1.938               
C              7.115               34.968              3.164               
C              6.645               36.389              2.865               
C              7.058               37.373              3.962               
N              6.209               37.286              5.146               
C              4.988               37.807              5.236               
N              4.457               38.462              4.209               
N              4.295               37.674              6.357               
H              4.886               33.908              2.173               
H              7.499               34.537              1.175               
H              6.519               34.587              3.858               
H              8.05                35.016              3.488               
H              7.047               36.698              2.007               
H              5.65                36.403              2.799               
H              8.002               37.169              4.215               
H              7.003               38.294              3.58                
H              6.571               36.799              5.951               
H              4.955               38.556              3.351               
H              3.541               38.867              4.298               
H              4.686               37.164              7.127               
H              3.385               38.078              6.438               
C              3.151               38.261              -9.135              
S              2.104               37.038              -8.295              
H              3.152               38.054              -10.1               
H              4.059               38.204              -8.751              
H              2.78706             39.2655             -9.00125            
H              3.56078             28.6269             -3.64189            
H              -2.33441            18.2568             0.612259            
H              7.64188             33.1262             2.1204              
