247
3.xyz
C              45.71               -2.998              6.747               
O              45.574              -4.141              7.136               
N              45.15               -1.999              7.372               
C              44.327              -2.248              8.588               
C              42.871              -2.477              8.179               
O              42.069              -2.967              8.949               
C              44.412              -1.037              9.519               
C              45.847              -0.882              10.027              
C              46.021              0.501               10.657              
C              46.134              -1.959              11.075              
H              45.305              -1.061              6.988               
H              44.671              -3.073              9.03                
H              44.192              -0.244              9.007               
H              43.842              -1.2                10.284              
H              46.476              -0.976              9.262               
H              45.384              0.599               11.421              
H              46.959              0.598               10.987              
H              45.832              1.203               9.971               
H              46.021              -2.862              10.661              
H              47.071              -1.857              11.406              
H              45.496              -1.857              11.837              
N              42.522              -2.125              6.972               
C              41.118              -2.324              6.515               
C              40.795              -3.819              6.497               
O              39.828              -4.263              7.084               
C              40.954              -1.75               5.105               
O              41.716              -0.557              4.99                
C              39.478              -1.442              4.846               
H              43.248              -1.716              6.376               
H              40.515              -1.873              7.169               
H              41.312              -2.428              4.429               
H              39.4                -0.603              4.306               
H              39.06               -2.2                4.343               
H              39.002              -1.32               5.718               
H              42.027              -0.423              4.041               
N              41.597              -4.6                5.827               
C              41.336              -6.066              5.773               
C              42.322              -6.793              6.69                
O              42                  -7.798              7.292               
C              41.513              -6.563              4.336               
O              41.546              -5.451              3.453               
C              40.347              -7.48               3.964               
H              42.392              -4.16               5.355               
H              40.41               -6.226              6.107               
H              42.405              -7.057              4.265               
H              39.486              -7.068              4.265               
H              40.324              -7.608              2.971               
H              40.463              -8.369              4.41                
H              42.267              -4.802              3.725               
N              43.522              -6.292              6.8                 
C              44.528              -6.955              7.678               
C              45.424              -7.863              6.834               
O              45.512              -9.053              7.064               
H              43.726              -5.443              6.264               
H              45.08               -6.254              8.122               
H              44.05               -7.497              8.365               
N              46.091              -7.311              5.856               
C              46.981              -8.143              4.998               
C              48.329              -7.439              4.829               
O              48.423              -6.231              4.909               
C              46.331              -8.335              3.626               
C              45.267              -9.432              3.711               
C              45.424              -10.389             2.528               
H              45.97               -6.303              5.718               
H              47.137              -9.004              5.477               
H              45.89               -7.499              3.358               
H              47.016              -8.621              2.981               
H              45.397              -9.939              4.545               
H              44.376              -9.016              3.665               
O              46.396              -11.113             2.442               
N              44.501              -10.424             1.606               
H              44.557              -11.02              0.803               
H              43.675              -9.807              1.715               
N              49.374              -8.186              4.594               
C              50.714              -7.557              4.419               
C              50.959              -7.295              2.932               
O              50.363              -7.917              2.075               
C              51.796              -8.5                4.958               
O              51.791              -8.457              6.378               
C              53.169              -8.066              4.438               
H              49.223              -9.197              4.539               
H              50.709              -6.685              4.902               
H              51.578              -9.453              4.663               
H              53.151              -7.09               4.216               
H              53.862              -8.234              5.14                
H              53.397              -8.589              3.615               
H              51.909              -7.511              6.706               
N              51.834              -6.381              2.618               
C              52.116              -6.087              1.186               
C              53.089              -4.913              1.08                
O              52.803              -3.813              1.513               
H              52.3                -5.894              3.388               
H              52.517              -6.897              0.762               
H              51.259              -5.858              0.728               
N              54.237              -5.135              0.5                 
C              55.221              -4.036              0.354               
C              54.51               -2.795              -0.19               
O              53.344              -2.833              -0.528              
C              56.314              -4.47               -0.621              
C              57.102              -5.615              -0.028              
C              57.66               -5.497              1.252               
C              57.278              -6.796              -0.76               
C              58.392              -6.557              1.797               
C              58.012              -7.856              -0.214              
C              58.568              -7.737              1.065               
O              59.291              -8.782              1.603               
H              54.41               -6.089              0.162               
H              55.58               -3.822              1.259               
H              55.89               -4.779              -1.449              
H              56.923              -3.715              -0.764              
H              57.538              -4.663              1.773               
H              56.884              -6.883              -1.661              
H              58.79               -6.474              2.711               
H              58.14               -8.697              -0.736              
H              59.828              -8.444              2.373               
N              55.202              -1.694              -0.275              
C              54.567              -0.451              -0.792              
C              55.661              0.519               -1.246              
O              56.722              0.569               -0.658              
C              53.748              0.2                 0.323               
C              54.513              0.088               1.643               
C              52.4                -0.513              0.452               
C              54.415              1.41                2.405               
H              56.182              -1.733              0.027               
H              54.065              -0.723              -1.607              
H              53.643              1.162               0.111               
H              54.112              -0.622              2.185               
H              55.457              -0.091              1.447               
H              51.871              -0.087              1.182               
H              51.904              -0.438              -0.41               
H              52.555              -1.474              0.667               
H              53.456              1.607               2.588               
H              54.916              1.327               3.262               
H              54.811              2.135               1.848               
N              55.367              1.271               -2.274              
C              56.309              2.262               -2.82               
C              56.366              3.49                -1.904              
O              55.389              4.188               -1.719              
C              55.715              2.607               -4.188              
C              54.216              2.237               -4.119              
C              54.073              1.206               -2.983              
H              57.219              1.863               -2.936              
H              55.809              3.587               -4.391              
H              56.157              2.083               -4.922              
H              53.676              3.055               -3.924              
H              53.926              1.844               -4.991              
H              53.321              1.455               -2.376              
H              53.915              0.292               -3.356              
N              57.504              3.743               -1.315              
C              57.635              4.905               -0.394              
C              57.469              6.218               -1.161              
O              57.05               7.216               -0.609              
C              59.017              4.87                0.25                
O              59.999              5.201               -0.724              
H              58.285              3.107               -1.521              
H              56.897              4.84                0.279               
H              59.051              5.535               0.98                
H              59.193              3.957               0.587               
H              59.57               5.243               -1.625              
N              57.797              6.234               -2.422              
C              57.661              7.487               -3.205              
C              56.177              7.812               -3.388              
O              55.816              8.885               -3.831              
C              58.311              7.284               -4.57               
C              57.467              6.303               -5.379              
H              58.143              5.358               -2.826              
H              58.058              8.216               -2.652              
H              58.332              8.142               -5.044              
H              59.203              6.898               -4.443              
O              56.799              5.459               -4.816              
N              57.473              6.371               -6.683              
H              58.055              7.084               -7.12               
H              56.937              5.758               -7.243              
N              55.315              6.889               -3.06               
C              53.855              7.137               -3.224              
C              53.215              7.39                -1.857              
O              52.086              7.83                -1.764              
C              53.205              5.908               -3.865              
C              53.342              5.976               -5.369              
C              54.342              6.765               -5.956              
C              52.475              5.234               -6.179              
C              54.472              6.811               -7.348              
C              52.603              5.283               -7.571              
C              53.601              6.071               -8.156              
O              53.727              6.115               -9.529              
H              55.691              6.008               -2.693              
H              53.747              7.958               -3.782              
H              53.671              5.107               -3.544              
H              52.25               5.907               -3.639              
H              54.958              7.292               -5.386              
H              51.772              4.674               -5.768              
H              55.187              7.37                -7.767              
H              51.983              4.757               -8.15               
H              54.695              6.165               -9.766              
N              53.923              7.113               -0.794              
C              53.343              7.338               0.561               
C              54.125              8.433               1.28                
O              55.207              8.813               0.878               
C              53.406              6.043               1.377               
C              54.793              5.41                1.245               
C              53.13               6.34                2.852               
H              54.866              6.746               -0.942              
H              52.403              7.65                0.436               
H              52.76               5.399               0.984               
H              54.713              4.419               1.335               
H              55.175              5.636               0.351               
H              55.388              5.766               1.964               
H              52.975              7.32                2.964               
H              52.32               5.833               3.141               
H              53.919              6.057               3.395               
N              53.579              8.939               2.346               
C              54.276              10.012              3.109               
C              53.962              9.86                4.6                 
O              52.921              9.347               4.963               
C              53.795              11.38               2.621               
H              52.663              8.567               2.625               
H              55.258              9.906               2.971               
H              52.799              11.373              2.549               
H              54.079              12.081              3.272               
H              54.195              11.571              1.726               
N              54.876              10.31               5.42                
C              54.732              10.24               6.885               
C              53.791              11.341              7.382               
O              54.056              12.516              7.225               
C              56.156              10.466              7.397               
C              56.914              11.204              6.267               
C              56.136              10.932              4.965               
H              54.403              9.336               7.166               
H              56.161              11.032              8.227               
H              56.617              9.597               7.596               
H              56.941              12.183              6.465               
H              57.846              10.85               6.202               
H              55.957              11.786              4.479               
H              56.648              10.31               4.373               
N              52.693              10.969              7.982               
C              51.738              11.993              8.489               
C              51.976              12.215              9.984               
O              52.181              13.355              10.368              
C              50.305              11.507              8.268               
O              49.44               12.163              9.185               
O              51.95               11.242              10.719              
H              52.532              9.962               8.08                
H              51.931              12.846              8.011               
H              50.028              11.73               7.346               
H              50.268              10.533              8.43                
H              48.723              11.531              9.474               
H              46.2907             -2.77325            5.8794              
