328
2.xyz
C              59.253              2.775               2.711               
O              59.876              2.452               3.701               
N              58.062              3.3                 2.8                 
C              57.436              3.518               4.136               
C              56.76               2.234               4.61                
O              56.433              1.367               3.828               
C              56.4                4.631               4.022               
C              57.007              5.784               3.295               
C              58.319              6.115               3.313               
C              56.35               6.756               2.443               
N              58.506              7.238               2.527               
C              57.319              7.67                1.967               
C              55.017              6.929               2.046               
C              56.972              8.724               1.12                
C              54.661              7.986               1.193               
C              55.638              8.883               0.731               
H              57.594              3.547               1.921               
H              58.174              3.733               4.774               
H              55.643              4.312               3.496               
H              56.157              4.937               4.916               
H              59.038              5.642               3.803               
H              59.4                7.689               2.379               
H              54.302              6.299               2.366               
H              57.683              9.367               0.792               
H              53.718              8.09                0.924               
H              55.385              9.624               0.133               
N              56.55               2.105               5.887               
C              55.899              0.873               6.408               
C              54.389              1.069               6.465               
O              53.895              1.903               7.19                
C              56.425              0.569               7.804               
C              56.143              -0.893              8.131               
C              56.817              -1.79               7.09                
C              56.704              -1.209              9.51                
H              56.849              2.875               6.493               
H              56.105              0.126               5.778               
H              57.385              0.693               7.803               
H              55.941              1.114               8.439               
H              55.161              -1.051              8.112               
H              57.803              -1.629              7.104               
H              56.63               -2.747              7.308               
H              56.454              -1.575              6.184               
H              56.267              -0.621              10.192              
H              56.523              -2.168              9.733               
H              57.691              -1.047              9.515               
N              53.645              0.311               5.711               
C              52.17               0.483               5.743               
C              51.505              -0.755              6.346               
O              52.033              -1.849              6.295               
C              51.65               0.701               4.321               
H              54.116              -0.377              5.123               
H              51.959              1.277               6.316               
H              52.401              0.586               3.673               
H              50.934              0.034               4.125               
H              51.278              1.624               4.243               
N              50.344              -0.581              6.916               
C              49.622              -1.731              7.527               
C              48.238              -1.851              6.88                
O              47.452              -0.925              6.899               
C              49.476              -1.49               9.035               
C              48.399              -2.379              9.599               
H              49.966              0.375               6.918               
H              50.138              -2.558              7.329               
H              50.33               -1.707              9.485               
H              49.218              -0.548              9.191               
N              48.678              -3.611              10.169              
C              47.038              -2.225              9.687               
C              47.51               -4.146              10.57               
N              46.478              -3.342              10.3                
H              49.564              -4.023              10.266              
H              46.522              -1.427              9.358               
H              47.428              -5.047              11.019              
N              47.935              -2.984              6.307               
C              46.604              -3.158              5.661               
C              45.541              -3.394              6.736               
O              45.735              -4.163              7.656               
C              46.649              -4.359              4.716               
O              47.82               -4.281              3.913               
H              48.644              -3.723              6.327               
H              46.387              -2.308              5.188               
H              46.679              -5.189              5.251               
H              45.854              -4.336              4.13                
H              48.381              -3.514              4.22                
N              44.418              -2.737              6.627               
C              43.344              -2.924              7.642               
C              42.424              -4.066              7.206               
O              41.606              -4.543              7.968               
C              42.532              -1.634              7.768               
C              43.468              -0.471              8.097               
C              42.731              0.853               7.887               
C              43.918              -0.577              9.556               
H              44.323              -2.105              5.826               
H              43.776              -3.17               8.506               
H              42.119              -1.449              6.91                
H              41.912              -1.735              8.505               
H              44.258              -0.506              7.494               
H              41.933              0.886               8.488               
H              43.345              1.611               8.103               
H              42.437              0.92                6.935               
H              44.399              -1.442              9.691               
H              44.53               0.184               9.769               
H              43.117              -0.541              10.152              
N              42.55               -4.508              5.985               
C              41.683              -5.619              5.5                 
C              41.925              -6.865              6.354               
O              41.042              -7.342              7.038               
C              42.019              -5.928              4.039               
O              41.999              -4.723              3.286               
C              40.988              -6.904              3.472               
H              43.259              -4.06               5.396               
H              40.733              -5.336              5.607               
H              42.961              -6.321              3.993               
H              41.453              -7.611              2.937               
H              40.484              -7.334              4.222               
H              40.347              -6.411              2.882               
H              42.555              -4.013              3.736               
N              43.117              -7.396              6.32                
C              43.414              -8.611              7.129               
C              44.186              -8.21               8.388               
O              44.033              -8.803              9.437               
C              44.258              -9.582              6.3                 
O              43.982              -9.386              4.92                
C              43.919              -11.02              6.692               
H              43.814              -6.942              5.723               
H              42.546              -9.019              7.402               
H              45.247              -9.381              6.462               
H              44.674              -11.626             6.435               
H              43.774              -11.074             7.681               
H              43.086              -11.31              6.219               
H              43.361              -8.603              4.789               
N              45.016              -7.207              8.292               
C              45.798              -6.77               9.483               
C              47.228              -7.302              9.379               
O              47.701              -8.011              10.244              
H              45.096              -6.752              7.378               
H              45.81               -5.774              9.514               
H              45.363              -7.13               10.305              
N              47.921              -6.966              8.324               
C              49.32               -7.455              8.164               
C              50.245              -6.272              7.862               
O              49.854              -5.313              7.226               
C              49.381              -8.455              7.008               
C              48.833              -9.807              7.469               
C              49.391              -10.914             6.573               
H              47.46               -6.365              7.634               
H              49.598              -7.853              9.035               
H              48.819              -8.131              6.271               
H              50.318              -8.579              6.737               
H              49.127              -9.972              8.393               
H              47.853              -9.799              7.387               
O              50.572              -11.197             6.6                 
N              48.585              -11.557             5.772               
H              48.896              -12.281             5.153               
H              47.58               -11.304             5.781               
N              51.47               -6.334              8.31                
C              52.418              -5.215              8.044               
C              53.164              -5.483              6.735               
O              53.267              -6.607              6.284               
C              53.424              -5.112              9.2                 
O              52.819              -4.431              10.289              
C              54.67               -4.341              8.746               
H              51.733              -7.171              8.839               
H              51.885              -4.379              7.944               
H              53.67               -6.055              9.505               
H              55.434              -4.977              8.636               
H              54.484              -3.89               7.873               
H              54.906              -3.653              9.433               
H              53.197              -3.501              10.382              
N              53.691              -4.457              6.127               
C              54.435              -4.652              4.854               
C              54.9                -3.298              4.321               
O              54.102              -2.433              4.014               
H              53.566              -3.539              6.564               
H              55.225              -5.236              5.027               
H              53.832              -5.087              4.19                
N              56.183              -3.104              4.202               
C              56.68               -1.809              3.679               
C              55.961              -1.5                2.369               
O              55.15               -2.274              1.899               
C              58.187              -1.884              3.442               
C              58.908              -1.298              4.63                
C              58.961              0.089               4.804               
C              59.528              -2.142              5.557               
C              59.636              0.631               5.903               
C              60.203              -1.602              6.656               
C              60.259              -0.214              6.829               
O              60.925              0.321               7.912               
H              56.801              -3.87               4.481               
H              56.449              -1.102              4.342               
H              58.442              -2.825              3.353               
H              58.405              -1.351              2.651               
H              58.522              0.691               4.15                
H              59.489              -3.123              5.437               
H              59.673              1.622               6.029               
H              60.646              -2.204              7.318               
H              61.377              1.165               7.632               
N              56.239              -0.375              1.78                
C              55.559              -0.022              0.509               
C              56.361              1.065               -0.213              
O              56.915              1.945               0.419               
C              54.157              0.499               0.824               
C              54.235              1.485               1.992               
C              53.254              -0.674              1.211               
C              53.288              2.657               1.736               
H              56.931              0.232               2.23                
H              55.603              -0.839              -0.06               
H              53.822              0.99                0.032               
H              53.961              1.029               2.814               
H              55.151              1.829               2.053               
H              52.341              -0.332              1.422               
H              53.204              -1.316              0.45                
H              53.634              -1.132              2.011               
H              52.358              2.309               1.652               
H              53.346              3.293               2.501               
H              53.559              3.113               0.893               
N              56.389              0.979               -1.517              
C              57.105              1.955               -2.355              
C              56.316              3.269               -2.418              
O              55.169              3.298               -2.816              
C              57.185              1.268               -3.721              
C              56.061              0.206               -3.746              
C              55.707              -0.093              -2.278              
H              58.03               2.112               -2.008              
H              57.042              1.924               -4.469              
H              58.074              0.819               -3.853              
H              55.267              0.568               -4.235              
H              56.389              -0.619              -4.206              
H              54.72               -0.054              -2.139              
H              56.049              -0.992              -2.009              
N              56.922              4.351               -2.003              
C              56.215              5.664               -2.009              
C              55.877              6.091               -3.44               
O              54.89               6.759               -3.675              
C              57.116              6.718               -1.367              
O              58.468              6.457               -1.72               
H              57.892              4.245               -1.68               
H              55.357              5.544               -1.506              
H              56.86               7.61                -1.706              
H              57.023              6.665               -0.385              
H              58.876              5.85                -1.04               
N              56.683              5.728               -4.398              
C              56.392              6.133               -5.798              
C              55.147              5.394               -6.3                
O              54.648              5.661               -7.375              
C              57.595              5.797               -6.681              
C              57.829              4.287               -6.691              
H              57.499              5.168               -4.137              
H              56.17               7.106               -5.775              
H              57.405              6.09                -7.601              
H              58.394              6.235               -6.308              
O              57.366              3.582               -5.818              
N              58.534              3.758               -7.653              
H              58.913              4.376               -8.368              
H              58.706              2.784               -7.702              
N              54.636              4.474               -5.526              
C              53.418              3.724               -5.952              
C              52.216              4.19                -5.126              
O              51.094              3.776               -5.363              
C              53.634              2.228               -5.726              
C              54.038              1.575               -7.025              
C              55.215              1.97                -7.666              
C              53.235              0.574               -7.588              
C              55.592              1.367               -8.87               
C              53.613              -0.029              -8.794              
C              54.792              0.368               -9.435              
O              55.165              -0.225              -10.624             
H              55.108              4.302               -4.632              
H              53.248              3.942               -6.91               
H              54.359              2.112               -5.078              
H              52.789              1.833               -5.428              
H              55.785              2.678               -7.271              
H              52.405              0.293               -7.135              
H              56.436              1.649               -9.329              
H              53.043              -0.741              -9.197              
H              55.042              -1.212              -10.548             
N              52.443              5.048               -4.162              
C              51.321              5.552               -3.317              
C              51.351              7.079               -3.292              
O              52.32               7.701               -3.681              
C              51.452              5.012               -1.885              
C              52.892              5.17                -1.384              
C              50.515              5.783               -0.953              
H              53.416              5.345               -4.027              
H              50.469              5.26                -3.745              
H              51.263              4.036               -1.906              
H              53.328              5.926               -1.869              
H              52.88               5.361               -0.404              
H              53.394              4.325               -1.556              
H              50.912              5.805               -0.037              
H              50.405              6.714               -1.298              
H              49.629              5.323               -0.928              
N              50.294              7.685               -2.834              
C              50.251              9.174               -2.778              
C              49.319              9.617               -1.646              
O              48.398              8.91                -1.289              
C              49.73               9.72                -4.109              
H              49.514              7.096               -2.522              
H              51.172              9.506               -2.589              
H              50.381              10.385              -4.471              
H              49.625              8.967               -4.756              
H              48.847              10.162              -3.962              
N              49.591              10.783              -1.116              
C              48.797              11.362              -0.018              
C              47.496              11.962              -0.559              
O              47.506              12.938              -1.284              
C              49.708              12.457              0.544               
C              50.697              12.825              -0.589              
C              50.716              11.631              -1.562              
H              48.607              10.673              0.684               
H              49.182              13.272              0.806               
H              50.221              12.133              1.343               
H              50.384              13.654              -1.052              
H              51.606              12.981              -0.203              
H              50.578              11.941              -2.501              
H              51.583              11.138              -1.496              
N              46.376              11.389              -0.213              
C              45.079              11.93               -0.709              
C              44.856              13.328              -0.128              
O              45.026              13.484              1.07                
C              43.941              11.009              -0.271              
O              42.712              11.505              -0.783              
O              44.52               14.218              -0.892              
H              46.439              10.571              0.4                 
H              45.147              12.01               -1.7                
H              44.101              10.104              -0.635              
H              43.898              10.998              0.716               
H              42.753              11.525              -1.78               
H              59.6627             2.65285             1.73312             
