256
3.xyz
C              18.196              30.146              2.608               
O              18.272              28.922              2.751               
N              18.978              30.785              1.745               
C              19.96               30.041              0.94                
C              21.081              29.548              1.852               
O              21.63               28.435              1.645               
C              20.451              30.747              -0.279              
C              21.935              31.077              -0.353              
C              22.158              32.266              0.629               
C              22.962              33.387              -0.045              
N              23.419              34.301              1.056               
H              18.846              31.802              1.688               
H              19.507              29.253              0.528               
H              20.226              30.185              -1.097              
H              19.941              31.623              -0.378              
H              22.46               30.32               -0.039              
H              22.166              31.375              -1.25               
H              21.275              32.619              0.891               
H              22.664              31.934              1.407               
H              23.741              32.999              -0.491              
H              22.376              33.879              -0.655              
H              24.416              34.309              1.078               
H              23.075              35.22               0.878               
H              23.062              33.966              1.925               
N              21.48               30.26               2.878               
C              22.532              29.731              3.77                
C              21.937              28.55               4.534               
O              22.649              27.587              4.852               
C              23.059              30.815              4.682               
C              24.313              31.587              4.391               
C              23.958              33.079              4.408               
C              25.146              31.438              5.714               
H              21.031              31.17               3.012               
H              23.282              29.404              3.211               
H              22.302              31.506              4.798               
H              23.175              30.394              5.615               
H              24.658              31.351              3.494               
H              23.6                33.321              5.308               
H              24.779              33.614              4.216               
H              23.267              33.26               3.711               
H              25.313              30.472              5.868               
H              26.002              31.928              5.599               
H              24.617              31.826              6.459               
N              20.664              28.649              4.888               
C              19.984              27.57               5.617               
C              19.96               26.295              4.753               
O              20.262              25.159              5.226               
C              18.53               28.011              5.979               
C              17.768              26.815              6.514               
N              17.993              26.162              7.711               
C              16.749              26.183              5.876               
C              17.117              25.167              7.787               
N              16.334              25.165              6.697               
H              20.196              29.532              4.615               
H              20.502              27.372              6.448               
H              18.573              28.697              6.679               
H              18.085              28.33               5.164               
H              16.377              26.415              4.984               
H              17.044              24.513              8.539               
H              15.589              24.533              6.526               
N              19.553              26.412              3.509               
C              19.523              25.304              2.551               
C              20.951              24.759              2.335               
O              21.106              23.529              2.176               
C              19.023              25.632              1.188               
C              17.729              26.351              0.804               
C              17.95               26.876              -0.627              
O              17.161              27.303              -1.436              
O              19.206              26.756              -0.863              
H              19.242              27.385              3.245               
H              18.941              24.569              2.898               
H              19.786              26.168              0.7                 
H              19.007              24.734              0.64                
H              17.024              25.712              0.768               
H              17.618              27.108              1.372               
N              21.957              25.583              2.323               
C              23.346              25.183              2.146               
C              23.967              24.713              3.452               
O              25.11               24.201              3.367               
C              24.206              26.276              1.519               
C              23.845              26.583              0.093               
O              23.066              25.879              -0.546              
O              24.369              27.639              -0.374              
H              21.686              26.601              2.456               
H              23.352              24.394              1.515               
H              24.095              27.104              2.068               
H              25.158              25.975              1.556               
N              23.366              24.814              4.581               
C              23.948              24.387              5.846               
C              25.163              25.193              6.244               
O              26.073              24.699              6.965               
H              22.396              25.238              4.535               
H              23.243              24.457              6.577               
H              24.202              23.404              5.78                
N              25.144              26.439              5.794               
C              26.188              27.435              6.074               
C              25.631              28.401              7.116               
O              24.432              28.694              7.248               
C              26.71               28.141              4.826               
C              27.855              27.452              4.117               
C              28.003              27.309              2.654               
O              29.069              27.042              2.079               
O              26.966              27.424              1.956               
H              24.3                26.668              5.204               
H              26.995              26.983              6.432               
H              25.957              28.21               4.184               
H              27.023              29.041              5.1                 
H              28.73               27.904              4.467               
H              27.916              26.49               4.522               
N              26.568              28.855              7.944               
C              26.274              29.799              9.046               
C              27.157              31.012              8.982               
O              28.37               30.941              8.593               
C              26.573              28.902              10.34               
O              25.304              28.612              10.975              
C              27.682              29.417              11.165              
H              27.528              28.495              7.757               
H              25.31               30.085              8.953               
H              26.983              28.041              10.024              
H              27.861              30.392              10.966              
H              27.47               29.336              12.15               
H              28.535              28.904              10.989              
H              25.077              29.335              11.632              
N              26.696              32.183              9.404               
C              27.629              33.341              9.422               
C              27.491              34.076              10.762              
O              26.413              34.131              11.313              
C              27.432              34.268              8.222               
C              26.54               35.456              8.384               
C              28.833              34.691              7.781               
H              25.73               32.226              9.692               
H              28.556              32.984              9.357               
H              27.035              33.697              7.462               
H              27.081              36.266              8.632               
H              26.053              35.645              7.526               
H              25.864              35.287              9.107               
H              29.303              33.903              7.387               
H              28.756              35.416              7.099               
H              29.339              35.025              8.575               
N              28.602              34.661              11.194              
C              28.504              35.476              12.458              
C              28.824              34.62               13.663              
O              28.791              33.394              13.6                
H              29.441              34.536              10.668              
H              29.15               36.237              12.388              
H              27.573              35.837              12.524              
N              29.114              35.317              14.774              
C              29.467              34.704              16.036              
C              28.267              33.999              16.659              
O              28.514              33.24               17.606              
C              29.994              35.694              17.105              
O              31.367              35.989              16.772              
H              29.059              36.359              14.636              
H              30.176              34.007              15.864              
H              29.472              36.516              17.059              
H              29.966              35.26               17.978              
H              31.655              35.385              16.036              
N              27.096              34.409              16.222              
C              25.856              33.815              16.74               
C              25.439              32.679              15.776              
O              24.374              32.128              15.983              
C              24.672              34.788              16.897              
C              24.994              35.911              17.868              
H              27.114              35.155              15.511              
H              26.071              33.387              17.608              
H              24.473              35.18               16.009              
H              23.896              34.278              17.243              
O              24.175              36.85               18.022              
N              26.163              35.777              18.504              
H              26.756              35                  18.332              
H              26.443              36.48               19.169              
N              26.208              32.484              14.738              
C              25.896              31.455              13.749              
C              24.485              31.559              13.164              
O              23.648              30.705              13.507              
C              26.03               30.047              14.365              
O              27.445              29.772              14.487              
H              27.039              33.101              14.67               
H              26.555              31.551              12.979              
H              25.632              30.048              15.255              
H              25.634              29.394              13.758              
H              27.951              30.596              14.254              
N              24.273              32.544              12.335              
C              23.052              32.816              11.605              
C              23.083              32.171              10.205              
O              24.149              32.141              9.569               
C              22.864              34.354              11.437              
C              22.541              35.005              12.757              
C              21.338              34.809              13.422              
C              23.5                35.852              13.314              
C              21.079              35.454              14.643              
C              23.247              36.526              14.516              
C              22.052              36.28               15.178              
O              21.901              36.943              16.371              
H              25.134              33.186              12.225              
H              22.276              32.414              12.106              
H              23.708              34.722              11.095              
H              22.115              34.496              10.817              
H              20.643              34.206              13.037              
H              24.372              35.98               12.857              
H              20.213              35.313              15.107              
H              23.909              37.164              14.882              
H              22.734              36.84               16.912              
N              21.976              31.699              9.697               
C              20.661              31.673              10.351              
C              20.671              30.568              11.384              
O              21.44               29.591              11.209              
C              19.695              31.413              9.234               
C              20.487              30.583              8.261               
C              21.931              31.061              8.384               
H              20.453              32.555              10.763              
H              18.891              30.904              9.551               
H              19.393              32.264              8.8                 
H              20.419              29.609              8.492               
H              20.151              30.72               7.326               
H              22.565              30.288              8.336               
H              22.151              31.714              7.656               
N              19.859              30.635              12.425              
C              19.89               29.55               13.453              
C              18.426              29.391              13.847              
O              17.61               30.264              13.521              
C              20.768              29.768              14.668              
C              20.401              30.853              15.628              
H              19.238              31.439              12.478              
H              20.193              28.732              13.017              
H              20.822              28.888              15.2                
H              21.731              29.947              14.352              
N              19.226              30.872              16.361              
C              21.107              31.932              16.038              
C              19.197              31.936              17.134              
N              20.335              32.611              16.938              
H              18.509              30.173              16.305              
H              22.026              32.185              15.736              
H              18.471              32.202              17.752              
N              18.071              28.32               14.506              
C              16.724              28.043              14.925              
C              16.706              26.686              15.742              
C              15.254              26.195              15.719              
C              15.137              24.796              16.355              
C              13.648              24.581              16.714              
N              13.403              23.105              16.921              
H              18.876              27.658              14.711              
H              16.126              27.961              14.095              
H              17.261              26.061              15.272              
H              16.959              26.892              16.645              
H              14.688              26.827              16.238              
H              14.942              26.142              14.777              
H              15.396              24.127              15.699              
H              15.658              24.775              17.175              
H              13.449              25.064              17.55               
H              13.091              24.902              15.966              
H              14.277              22.654              17.078              
H              12.808              22.987              17.711              
H              12.968              22.735              16.105              
H              17.5099             30.6793             3.20617             
H              16.2809             28.7956             15.5871             
