234
4.xyz
C              -6.412              51.421              2.175               
O              -5.526              52.018              1.612               
N              -6.044              50.615              3.166               
C              -4.666              50.22               3.393               
C              -4.316              48.844              2.862               
O              -5.081              47.938              3.013               
C              -4.404              50.192              4.926               
O              -4.706              51.497              5.387               
C              -2.911              49.967              5.151               
H              -6.838              50.29               3.769               
H              -4.058              50.902              2.935               
H              -5.044              49.538              5.343               
H              -2.722              49.914              6.133               
H              -2.629              49.111              4.714               
H              -2.392              50.726              4.755               
H              -4.943              52.103              4.616               
N              -3.081              48.702              2.421               
C              -2.679              47.369              1.872               
C              -1.479              46.934              2.734               
O              -0.798              47.858              3.127               
C              -2.169              47.577              0.42                
C              -3.308              47.529              -0.604              
C              -3.95               46.325              -0.937              
C              -3.768              48.695              -1.248              
C              -5.001              46.24               -1.866              
C              -4.862              48.634              -2.202              
C              -5.464              47.41               -2.503              
H              -2.465              49.498              2.474               
H              -3.414              46.754              2.073               
H              -1.76               48.462              0.37                
H              -1.551              46.85               0.213               
H              -3.645              45.474              -0.487              
H              -3.356              49.572              -1.061              
H              -5.413              45.355              -2.072              
H              -5.163              49.489              -2.63               
H              -6.207              47.354              -3.154              
N              -1.335              45.725              3.14                
C              -0.409              45.204              4.105               
C              0.524               44.21               3.43                
O              0.057               43.336              2.753               
C              -1.063              44.596              5.343               
C              0.003               44.169              6.39                
C              -2.094              45.407              6.157               
H              -2.043              45.043              2.648               
H              0.152               45.959              4.456               
H              -1.533              43.76               5.075               
H              0.416               44.988              6.775               
H              -0.446              43.641              7.104               
H              0.693               43.616              5.934               
H              -2.116              45.053              7.088               
H              -1.818              46.364              6.159               
H              -2.988              45.307              5.729               
N              1.801               44.569              3.458               
C              2.778               43.784              2.676               
C              3.442               42.828              3.682               
O              4.586               43.152              3.95                
C              3.924               44.746              2.238               
C              3.29                45.729              1.244               
H              2.038               45.377              4.025               
H              2.289               43.247              2.014               
H              4.233               45.245              3.006               
H              4.605               44.24               1.774               
N              2.933               45.384              -0.045              
C              2.967               47.039              1.493               
C              2.27                46.473              -0.574              
N              2.377               47.502              0.331               
H              3.124               47.539              2.321               
H              1.814               46.505              -1.428              
H              2.068               48.43               0.154               
N              2.612               42.056              4.3                 
C              3.077               41.001              5.212               
C              2.328               39.71               4.895               
O              1.326               39.725              4.206               
C              2.955               41.307              6.673               
C              3.502               42.637              7.103               
C              5.003               42.626              7.282               
O              5.637               41.556              7.237               
O              5.688               43.674              7.384               
H              1.602               42.225              4.115               
H              4.056               40.861              5.09                
H              1.989               41.29               6.912               
H              3.446               40.604              7.178               
H              3.293               43.304              6.408               
H              3.104               42.878              7.972               
N              2.848               38.653              5.512               
C              2.153               37.365              5.281               
C              0.823               37.374              6.017               
O              0.665               38.084              7.027               
C              2.995               36.197              5.677               
O              3.423               36.182              7.004               
H              3.653               38.784              6.079               
H              1.972               37.292              4.302               
H              2.475               35.337              5.497               
H              3.818               36.163              5.073               
H              2.739               36.621              7.592               
N              -0.077              36.584              5.511               
C              -1.48               36.515              5.978               
C              -1.547              35.96               7.391               
O              -2.266              36.382              8.291               
C              -2.218              35.641              4.988               
C              -3.632              35.458              5.42                
C              -4.286              36.745              5.765               
C              -4.359              34.352              4.732               
H              0.264               35.973              4.719               
H              -1.854              37.446              5.977               
H              -2.214              36.095              4.122               
H              -1.782              34.768              4.971               
H              -3.658              34.838              6.224               
H              -4.29               37.363              4.97                
H              -5.238              36.591              6.053               
H              -3.796              37.199              6.518               
H              -3.898              33.474              4.899               
H              -5.303              34.289              5.073               
H              -4.387              34.516              3.74                
N              -0.604              35.093              7.71                
C              -0.443              34.532              9.053               
C              0.17                35.562              9.978               
O              -0.172              35.569              11.133              
C              0.582               33.37               8.963               
H              0.032               34.833              6.914               
H              -1.349              34.276              9.403               
H              1.213               33.558              8.218               
H              1.075               33.312              9.825               
H              0.09                32.523              8.791               
N              1.152               36.334              9.489               
C              1.638               37.474              10.27               
C              0.527               38.454              10.574              
O              0.305               38.848              11.708              
C              2.81                38.197              9.64                
C              4.124               37.471              10.026              
O              4.007               36.334              10.512              
O              5.209               38.04               9.877               
H              1.51                36.066              8.57                
H              1.966               37.107              11.151              
H              2.723               38.163              8.667               
H              2.855               39.107              9.993               
N              -0.366              38.713              9.644               
C              -1.478              39.608              10.007              
C              -2.562              38.962              10.788              
O              -3.103              39.65               11.696              
C              -1.998              40.256              8.719               
C              -3.335              40.882              8.877               
C              -0.989              41.066              7.91                
H              -0.242              38.288              8.74                
H              -1.077              40.369              10.563              
H              -2.082              39.523              8.029               
H              -4.058              40.251              8.574               
H              -3.502              41.118              9.841               
H              -3.398              41.723              8.328               
H              -0.453              40.446              7.339               
H              -1.479              41.718              7.333               
H              -0.384              41.556              8.536               
N              -2.942              37.715              10.569              
C              -3.805              36.962              11.476              
C              -3.32               36.892              12.899              
O              -4.177              36.856              13.797              
C              -4.019              35.528              10.998              
C              -4.936              35.61               9.797               
C              -4.949              34.287              9.058               
H              -2.568              37.302              9.676               
H              -4.721              37.421              11.476              
H              -3.167              35.155              10.717              
H              -4.465              35.021              11.699              
H              -5.856              35.81               10.105              
H              -4.604              36.314              9.184               
O              -3.919              33.455              9.222               
N              -5.951              34.05               8.245               
H              -6.016              33.192              7.708               
H              -6.691              34.758              8.152               
N              -2.016              36.908              13.15               
C              -1.51               36.793              14.539              
C              -1.859              38.051              15.312              
O              -1.714              38.143              16.503              
C              0.013               36.628              14.513              
H              -1.402              37.003              12.332              
H              -1.955              36.008              14.969              
H              0.392               37.184              13.776              
H              0.391               36.926              15.387              
H              0.237               35.668              14.36               
N              -2.159              39.143              14.617              
C              -2.308              40.408              15.37               
C              -3.53               40.351              16.251              
O              -3.565              41.089              17.223              
C              -2.462              41.542              14.325              
C              -2.887              42.854              15.054              
C              -1.125              41.829              13.591              
H              -2.267              39.048              13.623              
H              -1.496              40.509              15.951              
H              -3.207              41.306              13.725              
H              -3.872              42.838              15.182              
H              -2.423              42.891              15.932              
H              -2.623              43.628              14.489              
H              -1.07               42.805              13.406              
H              -0.375              41.544              14.179              
H              -1.115              41.313              12.741              
N              -4.424              39.429              15.91               
C              -5.671              39.202              16.652              
C              -5.406              38.697              18.066              
O              -6.373              38.467              18.807              
H              -4.165              38.871              15.061              
H              -6.159              40.083              16.719              
N              -4.174              38.443              18.395              
C              -3.75               37.877              19.673              
C              -2.706              38.738              20.344              
O              -2.078              38.312              21.305              
C              -3.312              36.445              19.546              
O              -2.122              36.336              18.77               
H              -3.465              38.686              17.638              
H              -4.56               37.835              20.276              
H              -3.132              36.068              20.453              
H              -4.029              35.915              19.097              
H              -2.158              36.991              18.018              
N              -2.545              39.964              19.816              
C              -1.61               40.921              20.377              
C              -2.232              41.908              21.311              
O              -2.909              41.513              22.248              
C              -0.802              41.628              19.281              
C              -0.17               40.413              18.567              
C              0.782               40.756              17.449              
H              -3.142              40.152              18.987              
H              -0.904              40.392              20.896              
H              -1.393              42.052              18.676              
H              -0.105              42.133              19.677              
H              0.321               39.87               19.26               
H              -0.92               39.849              18.199              
O              1.23                41.953              17.158              
N              1.165               39.721              16.666              
H              1.793               39.878              15.886              
H              0.81                38.798              16.881              
N              -1.976              43.163              21.077              
H              -1.525              43.382              20.173              
H              -7.42338            51.6478             1.95583             
H              -6.27147            38.4579             16.1508             
H              -2.21539            43.8916             21.7653             
