243
6.xyz
C              39.019              38.069              -16.786             
O              40.244              38.16               -16.806             
N              38.345              37.11               -17.416             
C              39.041              36.021              -18.056             
C              39.381              35.148              -16.832             
O              38.514              34.761              -16.058             
C              40.334              36.481              -18.747             
C              40.18               37.773              -19.516             
H              37.317              37.218              -17.402             
H              38.398              35.517              -18.58              
H              41.034              36.606              -18.044             
H              40.62               35.761              -19.38              
O              39.287              37.923              -20.364             
N              41.081              38.72               -19.241             
H              41.8                38.552              -18.571             
H              41.032              39.603              -19.712             
N              40.655              34.881              -16.623             
C              41.096              34.161              -15.447             
C              41.891              35.148              -14.576             
O              42.337              34.83               -13.473             
H              41.303              35.226              -17.362             
H              40.315              33.832              -14.931             
H              41.689              33.409              -15.705             
N              42.036              36.373              -15.056             
C              42.826              37.391              -14.346             
C              42.107              37.974              -13.132             
O              40.923              38.248              -13.156             
C              43.178              38.496              -15.304             
H              41.557              36.556              -15.957             
H              43.692              36.962              -14.033             
H              44.145              38.742              -15.203             
H              43.015              38.197              -16.247             
H              42.615              39.305              -15.117             
N              42.862              38.171              -12.055             
C              42.347              38.76               -10.844             
C              42.361              40.266              -11.005             
O              43.349              40.856              -11.432             
C              43.228              38.344              -9.666              
C              43.137              36.822              -9.43               
C              42.826              39.124              -8.394              
C              44.16               36.328              -8.425              
H              43.856              37.861              -12.169             
H              41.389              38.489              -10.778             
H              44.174              38.557              -9.889              
H              42.226              36.613              -9.099              
H              43.292              36.367              -10.298             
H              43.442              38.873              -7.654              
H              42.895              40.099              -8.579              
H              41.89               38.888              -8.154              
H              44.01               36.786              -7.551              
H              44.059              35.342              -8.309              
H              45.077              36.535              -8.76               
N              41.217              40.9                -10.697             
C              41.083              42.347              -10.739             
C              40.59               42.809              -9.379              
O              39.464              42.505              -8.984              
C              40.101              42.79               -11.825             
C              40.006              44.265              -11.813             
C              40.532              42.249              -13.255             
H              40.438              40.257              -10.426             
H              41.984              42.742              -10.893             
H              39.209              42.422              -11.586             
H              40.907              44.678              -11.632             
H              39.675              44.608              -12.701             
H              39.368              44.575              -11.098             
H              41.08               41.437              -13.113             
H              39.704              42.043              -13.756             
H              41.054              42.964              -13.698             
N              41.456              43.51               -8.667              
C              41.106              44.044              -7.363              
C              40.127              45.205              -7.557              
O              40.401              46.115              -8.346              
C              42.355              44.479              -6.634              
S              43.515              43.159              -6.155              
H              42.385              43.642              -9.111              
H              40.64               43.334              -6.84               
H              42.858              45.129              -7.219              
H              42.081              44.965              -5.792              
N              38.966              45.146              -6.912              
C              37.943              46.188              -7.015              
C              38.229              47.253              -5.961              
O              38.913              46.999              -4.967              
C              36.562              45.57               -6.851              
C              36.177              44.753              -8.09               
C              34.963              43.861              -7.876              
O              35.03               42.949              -7.039              
O              33.954              44.037              -8.594              
H              38.844              44.29               -6.322              
H              37.97               46.598              -7.922              
H              36.589              44.958              -6.097              
H              35.914              46.287              -6.764              
H              35.96               45.383              -8.814              
H              36.937              44.172              -8.32               
N              37.756              48.466              -6.196              
C              38.083              49.592              -5.316              
C              37.362              49.522              -3.979              
O              36.144              49.357              -3.904              
C              37.799              50.926              -6.008              
C              38.427              52.146              -5.304              
C              38.348              53.349              -6.209              
C              38.438              54.673              -5.443              
N              39.766              54.938              -4.88               
H              37.151              48.553              -7.031              
H              39.083              49.588              -5.148              
H              38.165              50.888              -6.934              
H              36.813              51.065              -6.036              
H              37.92               52.321              -4.47               
H              39.376              51.939              -5.104              
H              39.103              53.32               -6.865              
H              37.478              53.337              -6.702              
H              38.18               55.42               -6.076              
H              37.75               54.654              -4.7                
H              40.04               54.183              -4.278              
H              40.439              55.027              -5.618              
H              39.749              55.789              -4.349              
N              38.181              49.609              -2.902              
C              37.708              49.67               -1.535              
C              38.492              50.759              -0.876              
O              38.799              51.747              -1.507              
H              39.199              49.628              -3.164              
H              36.742              49.89               -1.524              
H              37.878              48.805              -1.083              
N              38.836              50.57               0.381               
C              39.649              51.576              1.036               
C              41.087              51.455              0.487               
O              41.453              50.465              -0.193              
C              39.67               51.371              2.555               
O              40.374              50.159              2.873               
C              38.244              51.306              3.164               
H              38.503              49.712              0.822               
H              39.308              52.479              0.799               
H              40.17               52.149              2.989               
H              37.576              51.503              2.45                
H              38.089              50.392              3.531               
H              38.171              51.982              3.894               
H              39.739              49.38               2.879               
N              41.961              52.399              0.784               
C              43.312              52.339              0.324               
C              44.011              51.072              0.823               
O              44.759              50.427              0.073               
C              44.131              53.594              0.7                 
O              43.529              54.711              0.099               
H              41.578              53.173              1.372               
H              43.314              52.303              -0.686              
H              44.116              53.692              1.68                
H              45.046              53.481              0.355               
H              42.717              54.425              -0.413              
N              43.847              50.761              2.086               
C              44.426              49.577              2.674               
C              43.906              48.341              1.956               
O              44.703              47.431              1.626               
C              44.08               49.441              4.174               
H              43.263              51.442              2.63                
H              45.422              49.61               2.552               
H              43.167              49.8                4.313               
H              44.121              48.479              4.413               
N              42.616              48.26               1.708               
C              42.083              47.093              1.055               
C              42.635              46.88               -0.327              
O              42.964              45.777              -0.697              
C              40.549              47.212              1.044               
C              39.978              46.977              2.438               
C              38.553              47.478              2.656               
O              37.937              48.089              1.787               
O              37.981              47.257              3.78                
H              42.051              49.069              2.009               
H              42.271              46.267              1.626               
H              40.325              48.117              0.779               
H              40.202              46.521              0.459               
H              39.975              45.999              2.61                
H              40.557              47.446              3.094               
N              42.791              47.964              -1.055              
C              43.329              47.883              -2.4                
C              44.768              47.365              -2.372              
O              45.167              46.526              -3.195              
C              43.338              49.258              -3.074              
C              41.956              49.884              -3.196              
H              42.507              48.85               -0.602              
H              42.786              47.203              -2.903              
H              43.915              49.87               -2.535              
H              43.721              49.156              -3.991              
O              40.963              49.203              -3.258              
N              41.916              51.231              -3.242              
H              42.769              51.746              -3.202              
H              41.041              51.696              -3.316              
N              45.555              47.862              -1.455              
C              46.955              47.486              -1.384              
C              47.115              46.064              -0.862              
O              47.978              45.312              -1.312              
C              47.722              48.458              -0.509              
C              47.639              49.884              -1.003              
C              47.974              50.901              0.096               
N              49.42               51.069              0.211               
C              50.037              51.756              1.146               
N              49.342              52.244              2.166               
N              51.358              51.894              1.087               
H              45.11               48.531              -0.797              
H              47.355              47.535              -2.309              
H              47.342              48.425              0.408               
H              48.678              48.189              -0.5                
H              48.287              50.023              -1.751              
H              46.712              50.08               -1.322              
H              47.557              51.763              -0.151              
H              47.61               50.556              0.948               
H              49.994              50.613              -0.496              
H              48.365              52.088              2.256               
H              49.819              52.789              2.873               
H              51.876              51.462              0.349               
H              51.836              52.431              1.784               
N              46.324              45.671              0.094               
C              46.267              44.294              0.536               
C              45.901              43.357              -0.592              
O              46.564              42.346              -0.803              
C              45.318              44.097              1.735               
C              45.773              44.906              2.944               
C              45.21               42.624              2.093               
C              44.693              45.048              4.023               
H              45.733              46.427              0.518               
H              47.203              44.049              0.825               
H              44.414              44.423              1.465               
H              46.567              44.463              3.35                
H              46.029              45.819              2.639               
H              44.546              42.507              2.83                
H              44.911              42.106              1.293               
H              46.101              42.286              2.393               
H              44.437              44.14               4.342               
H              45.061              45.585              4.777               
H              43.903              45.508              3.628               
N              44.903              43.7                -1.346              
C              44.459              42.842              -2.439              
C              45.588              42.677              -3.437              
O              45.824              41.577              -3.922              
C              43.238              43.438              -3.128              
S              42.588              42.416              -4.466              
H              44.452              44.608              -1.122              
H              44.237              41.942              -2.062              
H              42.521              43.555              -2.447              
H              43.495              44.324              -3.507              
N              46.296              43.759              -3.752              
H              46.01               44.63               -3.298              
H              38.4285             38.7467             -16.2095            
H              47.0662             43.6806             -4.40841            
H              44.7557             49.9778             4.82309             
