204
4.xyz
C              -30.437             -37.508             29.339              
C              -31.564             -37.522             28.302              
O              -31.793             -36.522             27.619              
C              -29.183             -36.864             28.727              
C              -28.051             -36.607             29.73               
C              -28.549             -35.796             30.926              
N              -27.49              -35.475             31.88               
C              -26.547             -34.572             31.654              
N              -26.539             -33.909             30.506              
N              -25.619             -34.314             32.575              
H              -30.719             -36.92              30.111              
H              -28.833             -37.472             28.022              
H              -29.443             -35.99              28.331              
H              -27.706             -37.475             30.065              
H              -27.329             -36.091             29.285              
H              -28.948             -34.948             30.576              
H              -29.257             -36.333             31.385              
H              -27.478             -35.967             32.754              
H              -27.235             -34.055             29.812              
H              -25.805             -33.234             30.33               
H              -25.658             -34.802             33.452              
H              -24.903             -33.65              32.397              
N              -32.265             -38.654             28.195              
C              -33.375             -38.813             27.249              
C              -32.971             -38.615             25.793              
O              -33.694             -37.98              25.03               
C              -34.507             -37.831             27.571              
C              -35.04              -37.995             28.979              
H              -31.956             -39.414             28.84               
H              -33.703             -39.77              27.339              
H              -34.156             -36.904             27.468              
H              -35.251             -37.989             26.927              
O              -35.302             -39.111             29.43               
N              -35.209             -36.88              29.681              
H              -34.992             -35.993             29.269              
H              -35.553             -36.924             30.618              
N              -31.825             -39.166             25.408              
C              -31.334             -39.03              24.042              
C              -31.544             -40.273             23.169              
O              -30.971             -40.373             22.081              
C              -29.847             -38.668             24.065              
C              -29.507             -37.335             24.735              
C              -28.019             -37.072             24.656              
C              -30.273             -36.222             24.035              
H              -31.321             -39.69              26.149              
H              -31.821             -38.251             23.6                
H              -29.367             -39.381             24.562              
H              -29.53              -38.619             23.127              
H              -29.791             -37.374             25.692              
H              -27.732             -37.036             23.697              
H              -27.806             -36.198             25.097              
H              -27.52              -37.806             25.121              
H              -31.256             -36.395             24.107              
H              -30.057             -35.345             24.466              
H              -30.011             -36.191             23.07               
N              -32.355             -41.22              23.633              
C              -32.609             -42.432             22.857              
C              -34.065             -42.851             22.923              
O              -34.388             -44.015             22.669              
C              -31.773             -43.627             23.356              
O              -32.087             -43.892             24.728              
C              -30.289             -43.345             23.21               
H              -32.774             -41.03              24.556              
H              -32.373             -42.245             21.892              
H              -32.019             -44.451             22.808              
H              -29.765             -44.19              23.344              
H              -30.098             -42.984             22.294              
H              -30                 -42.67              23.894              
H              -31.59              -43.258             25.33               
N              -34.939             -41.906             23.26               
C              -36.368             -42.178             23.378              
C              -37.081             -42.571             22.088              
O              -37.787             -43.572             22.047              
C              -37.078             -40.967             23.986              
C              -36.879             -40.823             25.475              
C              -37.601             -41.922             26.232              
C              -37.201             -41.919             27.703              
N              -37.422             -40.594             28.353              
H              -34.52              -40.968             23.43               
H              -36.498             -42.936             24.061              
H              -36.728             -40.146             23.537              
H              -38.056             -41.058             23.801              
H              -35.902             -40.876             25.685              
H              -37.236             -39.938             25.773              
H              -38.579             -41.769             26.172              
H              -37.357             -42.8               25.842              
H              -37.74              -42.616             28.187              
H              -36.227             -42.162             27.775              
H              -37.562             -40.727             29.333              
H              -36.622             -40.016             28.203              
H              -38.229             -40.162             27.954              
N              -36.903             -41.782             21.038              
C              -37.567             -42.048             19.765              
C              -36.692             -42.801             18.77               
O              -37.185             -43.523             17.899              
C              -38.04              -40.728             19.139              
C              -37.005             -39.609             19.259              
O              -37.139             -38.595             18.535              
O              -36.067             -39.731             20.083              
H              -36.267             -40.978             21.194              
H              -38.367             -42.642             19.965              
H              -38.219             -40.891             18.177              
H              -38.867             -40.445             19.607              
N              -35.387             -42.628             18.905              
C              -34.446             -43.283             18.022              
C              -33.087             -43.175             18.679              
O              -32.951             -42.539             19.722              
C              -34.433             -42.584             16.659              
C              -33.953             -41.149             16.695              
C              -34.071             -40.508             15.324              
N              -33.211             -39.335             15.2                
C              -31.884             -39.392             15.111              
N              -31.27              -40.566             15.129              
N              -31.169             -38.28              15.003              
H              -35.107             -41.997             19.681              
H              -34.688             -44.242             17.938              
H              -33.831             -43.1               16.053              
H              -35.363             -42.593             16.298              
H              -34.509             -40.625             17.332              
H              -32.997             -41.123             16.968              
H              -33.807             -41.183             14.642              
H              -35.02              -40.237             15.19               
H              -33.646             -38.43              15.181              
H              -31.781             -41.419             15.188              
H              -30.262             -40.6               15.081              
H              -31.642             -37.394             14.969              
H              -30.176             -38.32              14.955              
N              -32.086             -43.803             18.078              
C              -30.741             -43.739             18.624              
C              -30.032             -42.587             17.944              
O              -29.865             -42.603             16.728              
C              -29.973             -45.02              18.329              
S              -30.767             -46.558             18.883              
H              -32.338             -44.321             17.222              
H              -30.803             -43.54              19.596              
H              -29.836             -45.083             17.336              
H              -29.075             -44.958             18.775              
N              -29.629             -41.581             18.71               
C              -28.917             -40.469             18.108              
C              -27.596             -41.113             17.698              
O              -26.945             -41.76              18.51               
C              -28.7               -39.354             19.136              
C              -28.171             -38.054             18.528              
C              -28.492             -36.833             19.392              
C              -29.998             -36.668             19.565              
N              -30.373             -35.329             20.114              
H              -29.854             -41.659             19.706              
H              -29.386             -40.174             17.306              
H              -29.571             -39.159             19.575              
H              -28.04              -39.674             19.809              
H              -27.176             -38.124             18.428              
H              -28.584             -37.926             17.624              
H              -28.082             -36.958             20.286              
H              -28.133             -36.023             18.947              
H              -30.443             -36.791             18.671              
H              -30.334             -37.383             20.189              
H              -30.261             -35.338             21.106              
H              -29.78              -34.632             19.714              
H              -31.325             -35.135             19.884              
N              -27.204             -40.977             16.425              
C              -25.958             -41.558             15.917              
C              -24.729             -41.095             16.69               
O              -23.832             -41.879             16.975              
C              -25.921             -41.091             14.463              
C              -27.381             -40.935             14.116              
C              -27.934             -40.28              15.352              
H              -26.015             -42.572             15.912              
H              -25.445             -40.22              14.379              
H              -25.492             -41.773             13.878              
H              -27.486             -40.352             13.322              
H              -27.795             -41.822             13.962              
H              -27.736             -39.305             15.369              
H              -28.915             -40.431             15.439              
N              -24.682             -39.811             17.016              
C              -23.539             -39.291             17.745              
C              -23.92              -38.119             18.641              
O              -24.739             -37.264             18.277              
C              -22.398             -38.858             16.771              
C              -22.849             -37.675             15.916              
C              -21.136             -38.492             17.56               
H              -25.488             -39.246             16.72               
H              -23.179             -40.028             18.337              
H              -22.232             -39.618             16.156              
H              -22.098             -37.021             15.833              
H              -23.11              -38.002             15.009              
H              -23.632             -37.232             16.35               
H              -21.111             -39.03              18.4                
H              -20.334             -38.695             17.002              
H              -21.161             -37.519             17.78               
N              -23.337             -38.102             19.83               
C              -23.592             -37.022             20.772              
C              -24.765             -37.348             21.685              
C              -25.202             -36.141             22.483              
H              -22.705             -38.897             20.024              
H              -23.759             -36.19              20.238              
H              -25.527             -37.653             21.126              
H              -24.486             -38.063             22.316              
O              -25.75              -35.199             21.924              
N              -24.941             -36.149             23.79               
H              -24.467             -36.939             24.188              
H              -25.212             -35.383             24.362              
H              -30.9302            -46.3922            20.1737             
H              -22.6965            -36.8353            21.3802             
H              -30.2215            -38.4841            29.7153             
