255
1.xyz
C              -20.542             -43.966             30.396              
C              -21.588             -43.557             29.36               
O              -22.694             -43.148             29.705              
C              -19.325             -43.035             30.273              
C              -19.685             -41.564             30.331              
C              -20.007             -40.955             31.541              
C              -19.749             -40.793             29.166              
C              -20.381             -39.611             31.597              
C              -20.131             -39.447             29.208              
C              -20.446             -38.861             30.426              
O              -20.853             -37.534             30.479              
H              -20.943             -43.83              31.319              
H              -18.705             -43.235             31.023              
H              -18.885             -43.214             29.4                
H              -19.972             -41.486             32.389              
H              -19.518             -41.207             28.29               
H              -20.6               -39.188             32.477              
H              -20.176             -38.915             28.366              
H              -20.706             -37.19              31.402              
N              -21.241             -43.668             28.085              
C              -22.179             -43.291             27.039              
C              -23.517             -44.02              27.073              
O              -24.571             -43.388             26.947              
C              -21.54              -43.477             25.674              
S              -20.333             -42.186             25.248              
H              -20.294             -44.028             27.911              
H              -22.368             -42.288             27.13               
H              -21.068             -44.354             25.661              
H              -22.258             -43.465             24.983              
N              -23.49              -45.343             27.209              
C              -24.733             -46.104             27.257              
C              -25.648             -45.543             28.344              
O              -26.853             -45.397             28.14               
C              -24.475             -47.594             27.554              
C              -23.871             -48.347             26.37               
H              -22.553             -45.763             27.274              
H              -25.201             -45.967             26.381              
H              -23.844             -47.655             28.322              
H              -25.344             -48.02              27.789              
O              -24.131             -48.025             25.21               
N              -23.08              -49.376             26.665              
H              -22.917             -49.619             27.623              
H              -22.651             -49.904             25.935              
N              -25.069             -45.237             29.499              
C              -25.842             -44.719             30.623              
C              -26.28              -43.272             30.437              
O              -27.438             -42.937             30.702              
C              -25.043             -44.863             31.92               
C              -24.726             -46.31              32.264              
C              -24.017             -46.464             33.598              
H              -24.045             -45.394             29.532              
H              -26.68              -45.286             30.71               
H              -24.182             -44.37              31.823              
H              -25.575             -44.474             32.67               
H              -25.583             -46.827             32.298              
H              -24.14              -46.69              31.546              
O              -22.978             -45.851             33.84               
N              -24.576             -47.294             34.469              
H              -24.151             -47.46              35.379              
H              -25.442             -47.766             34.214              
N              -25.362             -42.426             29.97               
C              -25.663             -41.01              29.751              
C              -26.669             -40.777             28.622              
O              -27.589             -39.971             28.771              
C              -24.379             -40.224             29.467              
C              -23.483             -40.019             30.686              
S              -24.25              -38.983             31.968              
C              -23.654             -37.382             31.515              
H              -24.435             -42.849             29.779              
H              -26.065             -40.64              30.605              
H              -23.846             -40.711             28.761              
H              -24.626             -39.316             29.1                
H              -23.238             -40.939             31.067              
H              -22.598             -39.606             30.374              
H              -23.018             -37.454             30.74               
H              -24.42              -36.788             31.248              
H              -23.172             -36.958             32.289              
N              -26.506             -41.464             27.494              
C              -27.452             -41.279             26.396              
C              -28.859             -41.618             26.869              
O              -29.844             -41.014             26.422              
C              -27.078             -42.149             25.187              
C              -25.787             -41.729             24.481              
S              -25.813             -39.99              23.897              
C              -26.844             -40.142             22.407              
H              -25.704             -42.097             27.467              
H              -27.437             -40.314             26.129              
H              -26.974             -43.105             25.492              
H              -27.83              -42.115             24.515              
H              -25.002             -41.874             25.122              
H              -25.623             -42.363             23.693              
H              -26.447             -40.834             21.81               
H              -27.765             -40.411             22.678              
H              -26.868             -39.261             21.941              
N              -28.946             -42.583             27.786              
C              -30.22              -43.021             28.339              
C              -30.805             -42.04              29.36               
O              -31.957             -41.618             29.238              
C              -30.058             -44.406             28.98               
C              -31.149             -44.777             29.967              
C              -30.909             -46.149             30.583              
C              -31.263             -47.269             29.612              
N              -32.731             -47.273             29.283              
H              -28.028             -42.991             28.068              
H              -30.888             -43.127             27.581              
H              -30.05              -45.086             28.247              
H              -29.179             -44.423             29.458              
H              -31.174             -44.095             30.7                
H              -32.031             -44.786             29.494              
H              -29.947             -46.23              30.822              
H              -31.477             -46.242             31.394              
H              -30.743             -47.146             28.766              
H              -31.022             -48.148             30.024              
H              -32.891             -47.903             28.527              
H              -33.242             -47.568             30.087              
H              -33.007             -46.351             29.023              
N              -30.014             -41.665             30.357              
C              -30.498             -40.746             31.385              
C              -30.828             -39.333             30.887              
O              -31.706             -38.685             31.434              
C              -29.502             -40.68              32.548              
O              -28.216             -40.321             32.094              
H              -29.063             -42.063             30.344              
H              -31.355             -41.139             31.778              
H              -29.821             -40                 33.202              
H              -29.459             -41.577             32.98               
H              -27.821             -41.076             31.57               
N              -30.141             -38.849             29.856              
H              -29.418             -39.466             29.47               
C              -12.328             -32.168             27.806              
C              -13.74              -32.567             27.381              
O              -14.724             -32.014             27.879              
C              -12.117             -32.511             29.283              
O              -12.201             -33.913             29.495              
H              -11.684             -32.645             27.214              
H              -11.216             -32.195             29.56               
H              -12.822             -32.06              29.821              
H              -12.272             -34.097             30.474              
N              -13.833             -33.519             26.458              
C              -15.133             -33.975             25.96               
C              -15.183             -35.496             25.788              
O              -14.156             -36.173             25.799              
C              -15.469             -33.333             24.578              
C              -14.492             -33.852             23.516              
C              -15.383             -31.791             24.665              
C              -14.804             -33.395             22.09               
H              -12.929             -33.902             26.128              
H              -15.805             -33.746             26.675              
H              -16.381             -33.622             24.329              
H              -13.571             -33.545             23.754              
H              -14.508             -34.852             23.536              
H              -15.619             -31.406             23.779              
H              -16.022             -31.472             25.357              
H              -14.455             -31.535             24.913              
H              -14.775             -32.4               22.056              
H              -14.122             -33.777             21.472              
H              -15.712             -33.719             21.839              
N              -16.392             -36.009             25.609              
C              -16.618             -37.429             25.388              
C              -17.572             -37.595             24.201              
O              -18.708             -37.132             24.249              
C              -17.26              -38.092             26.612              
O              -16.294             -38.195             27.671              
C              -17.773             -39.473             26.25               
H              -17.168             -35.307             25.64               
H              -15.75              -37.862             25.153              
H              -18.029             -37.507             26.943              
H              -18.775             -39.466             26.209              
H              -17.411             -39.749             25.356              
H              -17.479             -40.139             26.941              
H              -15.376             -37.975             27.327              
N              -17.109             -38.238             23.137              
C              -17.946             -38.469             21.971              
C              -18.617             -39.823             22.122              
O              -17.947             -40.828             22.339              
C              -17.128             -38.496             20.675              
C              -16.712             -37.121             20.207              
O              -17.497             -36.155             20.371              
O              -15.6               -37.017             19.656              
H              -16.124             -38.553             23.209              
H              -18.668             -37.779             21.98               
H              -16.312             -39.041             20.842              
H              -17.687             -38.922             19.971              
N              -19.936             -39.85              21.998              
C              -20.679             -41.097             22.096              
C              -21.117             -41.465             20.674              
O              -21.893             -40.742             20.047              
C              -21.899             -40.914             23.004              
S              -21.517             -40.611             24.768              
H              -20.38              -38.928             21.829              
H              -20.07              -41.807             22.422              
H              -22.427             -40.135             22.667              
H              -22.457             -41.743             22.95               
N              -20.585             -42.566             20.154              
C              -20.917             -43.01              18.808              
C              -21.464             -44.434             18.787              
O              -20.879             -45.342             19.385              
C              -19.682             -42.941             17.899              
C              -19.568             -41.663             17.1                
C              -18.503             -41.774             16.025              
N              -18.584             -40.667             15.072              
C              -19.628             -40.44              14.276              
N              -20.689             -41.239             14.317              
N              -19.605             -39.416             13.429              
H              -19.927             -43.07              20.779              
H              -21.621             -42.391             18.424              
H              -18.872             -43.025             18.475              
H              -19.726             -43.707             17.262              
H              -20.439             -41.466             16.655              
H              -19.319             -40.91              17.705              
H              -17.612             -41.762             16.467              
H              -18.638             -42.633             15.542              
H              -17.802             -40.038             15.014              
H              -20.73              -42.004             14.953              
H              -21.463             -41.068             13.697              
H              -18.808             -38.808             13.409              
H              -20.375             -39.252             12.818              
N              -22.573             -44.628             18.078              
C              -23.181             -45.945             17.974              
C              -22.204             -46.974             17.487              
O              -21.294             -46.668             16.705              
C              -24.338             -45.961             16.985              
C              -25.553             -45.223             17.395              
C              -26.691             -45.542             16.461              
O              -27.479             -46.44              16.794              
O              -26.773             -44.916             15.387              
H              -22.953             -43.78              17.62               
H              -23.546             -46.218             18.88               
H              -24.001             -45.563             16.135              
H              -24.584             -46.916             16.838              
H              -25.82              -45.511             18.29               
H              -25.386             -44.262             17.333              
N              -22.424             -48.205             17.941              
C              -21.615             -49.346             17.543              
C              -22.321             -49.936             16.315              
O              -23.46              -49.578             16.024              
C              -21.594             -50.404             18.642              
O              -22.929             -50.889             18.838              
C              -21.086             -49.805             19.954              
H              -23.228             -48.279             18.607              
H              -20.725             -49.03              17.264              
H              -21.015             -51.187             18.343              
H              -20.401             -50.413             20.358              
H              -20.672             -48.91              19.777              
H              -21.85              -49.696             20.592              
H              -23.498             -50.18              19.268              
N              -21.653             -50.845             15.613              
C              -22.242             -51.445             14.426              
H              -20.714             -51.078             15.973              
H              -22.472             -50.7               13.755              
H              -21.53              -52.018             13.954              
H              -23.131             -52.0547            14.594              
H              -12.2174            -31.1257            27.6495             
H              -20.2428            -44.9909            30.3159             
H              -30.3464            -37.9185            29.4973             
