230
1.xyz
C              4.823               -1.036              0.953               
C              4.345               0.261               1.617               
O              5.125               0.965               2.267               
C              4.644               -2.237              1.9                 
C              3.323               -2.985              1.898               
C              3.503               -4.511              1.881               
O              2.713               -5.193              1.196               
O              4.423               -5.05               2.552               
H              4.295               -1.197              0.121               
H              5.365               -2.899              1.673               
H              4.798               -1.901              2.834               
H              2.834               -2.762              2.719               
H              2.826               -2.745              1.087               
N              3.069               0.582               1.446               
C              2.485               1.792               2.018               
C              1.568               1.414               3.172               
O              0.632               0.638               3.011               
C              1.715               2.597               0.957               
C              0.896               3.696               1.607               
C              2.693               3.177               -0.055              
H              2.523               -0.097              0.873               
H              3.228               2.355               2.383               
H              1.074               1.977               0.513               
H              0.048               3.312               1.974               
H              1.42                4.111               2.352               
H              0.675               4.397               0.928               
H              2.579               4.17                -0.092              
H              3.627               2.956               0.225               
H              2.509               2.783               -0.955              
N              1.878               1.953               4.345               
C              1.129               1.69                5.561               
C              0.206               2.858               5.901               
O              0.59                4.018               5.831               
C              2.096               1.438               6.728               
C              1.348               1.243               8.041               
C              2.988               0.239               6.434               
H              2.714               2.587               4.316               
H              0.553               0.877               5.41                
H              2.663               2.253               6.836               
H              0.387               1.487               7.916               
H              1.416               0.287               8.324               
H              1.751               1.828               8.744               
H              2.815               -0.08               5.503               
H              3.946               0.511               6.524               
H              2.782               -0.492              7.084               
N              -1.03               2.526               6.252               
C              -1.963              3.476               6.826               
C              -1.547              3.715               8.271               
O              -1.473              2.776               9.048               
C              -3.372              2.892               6.774               
C              -4.46               3.804               7.31                
C              -5.776              3.08                7.494               
O              -5.864              1.905               7.108               
O              -6.726              3.691               8.024               
H              -1.27               1.521               6.078               
H              -1.932              4.334               6.324               
H              -3.583              2.7                 5.828               
H              -3.377              2.069               7.319               
H              -4.178              4.138               8.189               
H              -4.606              4.527               6.662               
N              -1.239              4.958               8.609               
C              -0.784              5.283               9.96                
C              -1.958              5.724               10.817              
O              -2.638              6.698               10.499              
C              0.305               6.37                9.946               
C              0.798               6.654               11.363              
C              1.457               5.95                9.055               
H              -1.345              5.661               7.857               
H              -0.395              4.451               10.366              
H              -0.108              7.211               9.61                
H              0.107               7.183               11.854              
H              0.958               5.79                11.838              
H              1.65                7.174               11.32               
H              1.425               6.471               8.201               
H              2.323               6.129               9.523               
H              1.383               4.973               8.853               
N              -2.157              5.004               11.92               
C              -3.25               5.246               12.861              
C              -2.783              6.02                14.095              
O              -3.483              6.918               14.552              
C              -3.899              3.914               13.244              
C              -4.686              3.308               12.073              
C              -5.079              1.874               12.37               
C              -5.916              4.15                11.764              
H              -1.452              4.236               12.059              
H              -3.959              5.793               12.395              
H              -3.19               3.284               13.479              
H              -4.53               4.078               13.97               
H              -4.113              3.336               11.253              
H              -5.652              1.845               13.19               
H              -5.59               1.497               11.596              
H              -4.257              1.324               12.522              
H              -5.633              5.078               11.519              
H              -6.417              3.742               11                  
H              -6.508              4.185               12.57               
N              -1.606              5.68                14.618              
C              -0.957              6.481               15.657              
C              0.491               6.761               15.307              
O              1.241               5.843               14.996              
C              -0.991              5.782               17.013              
C              -0.243              6.559               18.082              
O              -0.662              7.699               18.362              
O              0.772               6.127               18.677              
H              -1.194              4.808               14.23               
H              -1.435              7.368               15.687              
H              -1.939              5.692               17.291              
H              -0.568              4.891               16.913              
N              0.872               8.032               15.395              
C              2.261               8.464               15.254              
C              2.757               9.286               16.458              
O              3.784               9.959               16.365              
C              2.43                9.26                13.959              
O              1.596               10.403              13.932              
H              0.086               8.703               15.575              
H              2.843               7.638               15.191              
H              3.382               9.551               13.883              
H              2.197               8.67                13.188              
H              0.78                10.234              14.483              
N              2.045               9.229               17.585              
C              2.445               9.964               18.798              
C              3.524               9.251               19.624              
O              4.315               9.907               20.312              
C              1.229               10.278              19.678              
O              0.654               9.119               20.231              
H              1.198               8.633               17.538              
H              2.822               10.86               18.505              
H              1.522               10.886              20.418              
H              0.546               10.749              19.117              
H              0.166               8.611               19.52               
N              3.547               7.921               19.572              
C              4.634               7.138               20.158              
C              5.869               7.33                19.274              
O              5.807               7.068               18.082              
C              4.195               5.668               20.236              
C              5.225               4.75                20.886              
H              2.734               7.492               19.084              
H              4.845               7.538               21.042              
H              3.35                5.621               20.768              
H              4.024               5.342               19.306              
O              6.427               4.935               20.747              
N              4.741               3.73                21.573              
H              3.752               3.587               21.642              
H              5.364               3.09                22.031              
N              6.977               7.825               19.817              
C              8.151               8.128               18.983              
C              8.927               6.907               18.484              
O              9.682               7.027               17.518              
C              9.028               8.969               19.91               
C              8.653               8.537               21.282              
C              7.198               8.184               21.233              
H              7.878               8.721               18.194              
H              10.002              8.795               19.729              
H              8.847               9.948               19.776              
H              9.207               7.74                21.567              
H              8.82                9.281               21.946              
H              6.986               7.406               21.826              
H              6.619               8.961               21.489              
N              8.73                5.76                19.122              
C              9.473               4.534               18.826              
C              8.689               3.613               17.889              
O              9.21                3.127               16.88               
C              9.751               3.779               20.131              
O              10.602              4.521               20.98               
H              7.989               5.804               19.865              
H              10.328              4.793               18.359              
H              8.885               3.617               20.596              
H              10.187              2.911               19.909              
H              10.668              5.462               20.649              
N              7.432               3.375               18.249              
C              6.562               2.429               17.564              
C              5.257               3.095               17.155              
O              4.499               3.56                18.002              
C              6.235               1.261               18.485              
C              7.382               0.365               18.778              
C              8.288               0.495               19.798              
C              7.733               -0.829              18.079              
N              9.183               -0.547              19.763              
C              8.871               -1.371              18.712              
C              7.196               -1.505              16.977              
C              9.48                -2.555              18.282              
C              7.797               -2.681              16.552              
C              8.931               -3.193              17.2                
H              7.115               3.936               19.082              
H              7.03                2.134               16.723              
H              5.906               1.621               19.357              
H              5.521               0.706               18.06               
H              8.297               1.234               20.465              
H              9.941               -0.685              20.4                
H              6.393               -1.152              16.501              
H              10.289              -2.909              18.759              
H              7.414               -3.167              15.772              
H              9.338               -4.039              16.859              
N              5.002               3.14                15.856              
C              3.735               3.636               15.325              
C              2.74                2.498               15.146              
O              3.126               1.341               15.036              
C              3.986               4.351               13.997              
C              4.649               5.672               14.163              
C              5.1                 6.226               15.326              
C              4.926               6.619               13.14               
N              5.644               7.462               15.087              
C              5.549               7.729               13.747              
C              4.714               6.644               11.759              
C              5.951               8.85                13.026              
C              5.112               7.754               11.044              
C              5.723               8.844               11.678              
H              5.776               2.794               15.248              
H              3.35                4.274               16                  
H              4.578               3.786               13.437              
H              3.116               4.505               13.548              
H              5.042               5.793               16.227              
H              6.043               8.067               15.772              
H              4.282               5.872               11.294              
H              6.389               9.624               13.492              
H              4.961               7.78                10.059              
H              5.995               9.631               11.121              
N              1.452               2.827               15.168              
C              0.381               1.856               14.948              
C              -0.726              2.051               15.979              
O              -0.203              1.811               17.291              
C              -1.84               1.008               15.811              
H              1.269               3.84                15.356              
H              0.771               0.941               14.983              
H              -1.052              3.018               15.942              
H              -2.725              1.431               16.007              
H              -1.835              0.664               14.872              
H              -1.685              0.25                16.445              
H              0.265               2.631               17.636              
H              5.85661             -0.946469           0.71498             
H              -0.0204295          2.02763             13.952              
