330
0.xyz
N              38.921              19.35               12.098              
C              38.055              19.469              10.892              
C              36.839              18.556              11                  
O              35.797              18.957              11.519              
C              38.855              19.117              9.633               
C              40.052              20.023              9.385               
C              39.622              21.471              9.192               
C              40.823              22.385              9.003               
N              40.415              23.8                8.779               
H              38.345              19.268              12.908              
H              37.747              20.422              10.822              
H              39.184              18.18               9.726               
H              38.242              19.183              8.848               
H              40.669              19.972              10.17               
H              40.53               19.716              8.563               
H              39.047              21.53               8.383               
H              39.121              21.768              9.997               
H              41.402              22.335              9.822               
H              41.353              22.067              8.212               
H              40.497              24.018              7.807               
H              39.467              23.921              9.071               
H              41.009              24.404              9.31                
H              39.496              18.54               12.01               
H              39.493              20.163              12.172              
N              36.979              17.329              10.507              
C              35.895              16.354              10.543              
C              35.68               15.845              11.964              
O              36.621              15.402              12.621              
C              36.218              15.178              9.612               
C              35.178              14.064              9.619               
C              35.509              12.942              8.649               
O              36.633              12.398              8.72                
O              34.64               12.597              7.821               
H              37.915              17.129              10.1                
H              35.047              16.777              10.207              
H              36.271              15.53               8.694               
H              37.073              14.789              9.907               
H              35.148              13.677              10.521              
H              34.315              14.446              9.347               
N              34.44               15.917              12.438              
C              34.12               15.447              13.782              
C              34.113              13.925              13.795              
O              33.919              13.29               12.758              
C              32.731              15.933              14.243              
O              31.715              15.302              13.455              
C              32.619              17.443              14.092              
H              33.744              16.323              11.79               
H              34.831              15.766              14.41               
H              32.595              15.66               15.217              
H              31.876              17.667              13.457              
H              32.427              17.86               14.983              
H              33.479              17.814              13.735              
H              30.803              15.545              13.801              
N              34.324              13.347              14.973              
C              34.336              11.895              15.122              
C              33.004              11.306              14.667              
O              32.962              10.245              14.035              
C              34.605              11.523              16.575              
H              34.476              14.004              15.762              
H              35.067              11.516              14.547              
H              33.9                11.925              17.158              
H              34.591              10.528              16.673              
H              35.501              11.872              16.848              
N              31.918              12.002              14.987              
C              30.583              11.554              14.612              
C              30.436              11.506              13.097              
O              29.91               10.541              12.551              
C              29.535              12.479              15.21               
H              32.101              12.876              15.518              
H              30.436              10.628              14.978              
H              28.933              12.815              14.486              
H              28.994              11.979              15.886              
H              29.986              13.254              15.653              
N              30.898              12.555              12.424              
C              30.82               12.626              10.967              
C              31.713              11.564              10.334              
O              31.372              10.983              9.299               
C              31.246              14.015              10.489              
H              31.311              13.304              13.012              
H              29.871              12.457              10.685              
H              32.209              14.16               10.71               
H              31.116              14.079              9.501               
H              30.69               14.707              10.946              
N              32.86               11.318              10.954              
C              33.79               10.322              10.443              
C              33.155              8.939               10.542              
O              33.342              8.1                 9.665               
C              35.099              10.356              11.234              
C              36.12               9.329               10.778              
C              37.434              9.498               11.519              
C              38.439              8.45                11.092              
N              39.738              8.602               11.8                
H              33.029              11.88               11.806              
H              33.985              10.518              9.48                
H              35.5                11.264              11.134              
H              34.886              10.185              12.194              
H              35.764              8.412               10.956              
H              36.283              9.441               9.799               
H              37.804              10.398              11.315              
H              37.268              9.403               12.495              
H              38.064              7.538               11.286              
H              38.594              8.528               10.102              
H              39.797              7.926               12.534              
H              40.487              8.46                11.153              
H              39.8                9.522               12.187              
N              32.406              8.699               11.615              
C              31.745              7.404               11.771              
C              30.731              7.203               10.645              
O              30.653              6.127               10.053              
C              31.041              7.307               13.134              
C              30.238              6.04                13.314              
C              28.921              5.962               12.868              
C              30.814              4.915               13.894              
C              28.188              4.786               12.996              
C              30.088              3.725               14.026              
C              28.772              3.663               13.575              
H              32.337              9.467               12.292              
H              32.448              6.7                 11.655              
H              31.736              7.329               13.834              
H              30.423              8.072               13.209              
H              28.493              6.759               12.449              
H              31.757              4.952               14.221              
H              27.237              4.755               12.67               
H              30.525              2.92                14.449              
H              28.248              2.82                13.664              
N              29.951              8.237               10.346              
C              28.964              8.129               9.28                
C              29.623              7.879               7.924               
O              29.133              7.077               7.139               
C              28.097              9.388               9.219               
C              27.139              9.508               10.397              
C              26.158              10.647              10.24               
O              25.576              10.777              9.142               
O              25.959              11.402              11.218              
H              30.101              9.084               10.911              
H              28.325              7.374               9.483               
H              28.694              10.164              9.241               
H              27.559              9.343               8.402               
H              26.623              8.673               10.458              
H              27.669              9.678               11.208              
N              30.738              8.556               7.659               
C              31.446              8.39                6.387               
C              32.037              6.994               6.254               
O              31.995              6.38                5.183               
C              32.572              9.427               6.268               
C              33.533              9.193               5.094               
C              34.568              10.313              4.976               
N              35.491              10.395              6.11                
C              36.542              9.599               6.29                
N              36.82               8.645               5.411               
N              37.327              9.763               7.348               
H              31.054              9.194               8.41                
H              30.792              8.538               5.633               
H              32.159              10.325              6.148               
H              33.107              9.405               7.107               
H              34.018              8.335               5.233               
H              33.013              9.162               4.246               
H              35.093              10.158              4.135               
H              34.07               11.181              4.893               
H              35.317              11.106              6.804               
H              36.262              8.521               4.594               
H              37.607              8.037               5.569               
H              37.133              10.502              7.998               
H              38.105              9.158               7.497               
N              32.596              6.5                 7.352               
C              33.232              5.192               7.367               
C              32.324              3.991               7.579               
O              32.593              2.914               7.046               
C              34.306              5.15                8.455               
C              35.561              5.932               8.157               
C              36.631              5.704               9.207               
O              36.327              5.509               10.382              
N              37.893              5.717               8.782               
H              32.54               7.12                8.186               
H              33.702              5.066               6.458               
H              33.906              5.507               9.31                
H              34.564              4.186               8.611               
H              35.921              5.646               7.272               
H              35.342              6.905               8.135               
H              38.663              5.586               9.431               
H              38.074              5.862               7.79                
N              31.245              4.16                8.336               
C              30.414              2.976               8.655               
C              28.935              3                   8.297               
O              28.228              2.025               8.529               
C              30.534              2.713               10.15               
C              31.986              2.518               10.58               
H              31.049              5.1                 8.656               
H              30.847              2.163               8.176               
H              30.17               3.488               10.66               
H              30.036              1.884               10.387              
N              32.759              1.465               10.136              
C              32.782              3.252               11.393              
C              33.968              1.558               10.658              
N              34.009              2.635               11.425              
H              32.448              0.746               9.515               
H              32.527              4.084               11.879              
H              34.722              0.926               10.504              
N              28.425              4.093               7.739               
C              27.008              4.153               7.384               
C              26.713              4.107               5.887               
O              27.281              4.87                5.106               
C              26.364              5.427               7.941               
C              26.245              5.503               9.449               
S              25.179              4.23                10.16               
C              23.666              4.451               9.235               
H              29.09               4.864               7.585               
H              26.543              3.351               7.817               
H              26.903              6.228               7.621               
H              25.433              5.52                7.541               
H              27.192              5.449               9.855               
H              25.905              6.443               9.704               
H              23.006              4.967               9.785               
H              23.857              4.955               8.39                
H              23.277              3.557               9.005               
N              25.818              3.207               5.493               
C              25.393              3.113               4.098               
C              23.972              2.573               4.055               
O              23.743              1.413               3.718               
C              26.312              2.211               3.273               
C              25.933              2.208               1.802               
O              25.387              3.231               1.341               
O              26.182              1.203               1.108               
H              25.456              2.591               6.244               
H              25.367              4.042               3.733               
H              27.238              2.55                3.363               
H              26.235              1.289               3.624               
N              23.025              3.439               4.4                 
C              21.609              3.091               4.439               
C              20.95               2.942               3.067               
O              19.857              2.389               2.965               
C              20.843              4.149               5.239               
O              21.497              4.455               6.455               
H              23.383              4.393               4.642               
H              21.52               2.196               4.921               
H              20.774              4.978               4.688               
H              19.931              3.798               5.439               
H              21.329              3.726               7.118               
N              21.601              3.435               2.015               
C              21.034              3.35                0.668               
C              20.887              1.918               0.156               
O              19.977              1.618               -0.616              
C              21.876              4.163               -0.318              
O              21.076              5.09                -1.027              
H              22.514              3.87                2.226               
H              20.107              3.766               0.694               
H              22.575              4.658               0.19                
H              22.301              3.538               -0.966              
H              20.12               4.984               -0.755              
N              21.787              1.038               0.583               
C              21.74               -0.36               0.173               
C              21.29               -1.228              1.343               
O              21.838              -1.136              2.439               
C              23.119              -0.85               -0.312              
O              24.111              -0.543              0.675               
C              23.489              -0.179              -1.63               
H              22.509              1.425               1.219               
H              21.07               -0.455              -0.567              
H              23.086              -1.863              -0.426              
H              24.486              -0.141              -1.722              
H              23.107              -0.702              -2.395              
H              23.12               0.753               -1.651              
H              23.709              0.004               1.417               
N              20.289              -2.069              1.099               
C              19.752              -2.953              2.127               
C              20.739              -4.047              2.52                
O              20.696              -4.558              3.64                
C              18.45               -3.591              1.638               
O              18.66               -4.3                0.431               
H              19.927              -2.041              0.123               
H              19.563              -2.397              2.951               
H              18.122              -4.222              2.333               
H              17.781              -2.872              1.48                
H              19.569              -4.715              0.441               
N              21.623              -4.403              1.594               
C              22.618              -5.437              1.845               
C              23.885              -5.174              1.041               
O              24.708              -6.07               0.854               
C              22.05               -6.807              1.492               
H              21.543              -3.89               0.695               
H              22.853              -5.432              2.824               
H              22.741              -7.508              1.664               
H              21.244              -6.988              2.054               
H              21.793              -6.822              0.526               
N              24.035              -3.939              0.57                
C              25.202              -3.546              -0.213              
C              25.192              -4.204              -1.586              
O              25.238              -3.521              -2.612              
C              26.48               -3.92               0.53                
H              23.259              -3.287              0.805               
H              25.188              -2.545              -0.336              
H              26.42               -3.602              1.475               
H              26.593              -4.913              0.519               
H              27.263              -3.49               0.083               
N              25.137              -5.532              -1.593              
C              25.121              -6.314              -2.822              
C              26.307              -5.993              -3.724              
O              27.093              -5.094              -3.437              
C              23.806              -6.088              -3.582              
O              23.624              -4.728              -3.936              
H              25.106              -5.966              -0.641              
H              25.179              -7.292              -2.572              
H              23.819              -6.642              -4.413              
H              23.048              -6.376              -2.999              
H              24.275              -4.162              -3.431              
N              26.43               -6.745              -4.813              
C              27.515              -6.557              -5.768              
C              28.874              -6.924              -5.182              
O              29.28               -6.409              -4.139              
C              27.55               -5.11               -6.264              
O              28.67               -4.899              -7.104              
H              25.692              -7.472              -4.923              
H              27.345              -7.166              -6.559              
H              26.719              -4.927              -6.777              
H              27.614              -4.504              -5.479              
H              29.24               -4.171              -6.724              
N              29.573              -7.818              -5.871              
C              30.891              -8.267              -5.446              
C              31.924              -7.147              -5.524              
O              33.042              -7.293              -5.037              
C              31.34               -9.448              -6.313              
O              31.266              -9.124              -7.693              
H              29.101              -8.166              -6.733              
H              30.827              -8.56               -4.482              
H              32.281              -9.675              -6.083              
H              30.744              -10.224             -6.13               
H              31.859              -8.343              -7.883              
N              31.546              -6.027              -6.133              
H              30.574              -6.031              -6.494              
H              32.1753             -5.23945            -6.22737            
