108
1.xyz
C              6.329               -0.592              -0.443              
O              6.154               -1.35               0.512               
N              5.5                 0.412               -0.729              
C              4.326               0.684               0.094               
C              3.032               0.387               -0.66               
O              3.019               0.3                 -1.888              
C              4.34                2.142               0.578               
C              3.735               3.136               -0.395              
C              4.508               3.734               -1.383              
C              2.39                3.484               -0.314              
C              3.959               4.646               -2.265              
C              1.834               4.397               -1.192              
C              2.621               4.975               -2.164              
O              2.071               5.885               -3.041              
H              5.757               0.966               -1.565              
H              4.36                0.083               0.904               
H              3.826               2.19                1.433               
H              5.289               2.406               0.741               
H              5.481               3.501               -1.457              
H              1.818               3.065               0.39                
H              4.529               5.066               -2.976              
H              0.864               4.637               -1.121              
H              1.648               5.393               -3.799              
N              1.947               0.231               0.093               
C              0.639               -0.051              -0.487              
C              -0.416              0.897               0.07                
O              -0.334              1.321               1.222               
C              0.231               -1.499              -0.204              
C              1.089               -2.529              -0.905              
C              2.354               -2.849              -0.428              
C              0.632               -3.181              -2.041              
C              3.138               -3.793              -1.065              
C              1.41                -4.126              -2.685              
C              2.66                -4.428              -2.192              
O              3.438               -5.368              -2.829              
H              2.111               0.326               1.116               
H              0.696               0.093               -1.482              
H              0.296               -1.655              0.779               
H              -0.712              -1.622              -0.506              
H              2.705               -2.388              0.39                
H              -0.276              -2.965              -2.4                
H              4.049               -4.015              -0.708              
H              1.066               -4.587              -3.505              
H              3.336               -5.262              -3.816              
N              -1.404              1.229               -0.755              
C              -2.479              2.124               -0.337              
C              -3.831              1.423               -0.44               
O              -4.217              0.946               -1.509              
C              -2.471              3.401               -1.189              
C              -3.676              4.3                 -0.982              
C              -4.849              4.093               -1.695              
C              -3.636              5.358               -0.079              
C              -5.95               4.909               -1.517              
C              -4.733              6.18                0.105               
C              -5.887              5.952               -0.616              
O              -6.978              6.77                -0.435              
H              -1.346              0.806               -1.7                
H              -2.328              2.372               0.625               
H              -1.651              3.922               -0.961              
H              -2.445              3.134               -2.15               
H              -4.899              3.336               -2.354              
H              -2.801              5.524               0.444               
H              -6.791              4.743               -2.039              
H              -4.69               6.938               0.759               
H              -7.227              6.776               0.532               
N              -4.544              1.36                0.681               
C              -5.853              0.72                0.722               
C              -6.924              1.648               0.158               
O              -7.215              2.697               0.733               
C              -6.205              0.329               2.159               
C              -7.477              -0.491              2.242               
H              -4.094              1.799               1.508               
H              -5.812              -0.082              0.118               
H              -5.454              -0.209              2.531               
H              -6.328              1.162               2.69                
O              -8.563              0.047               2.447               
N              -7.348              -1.801              2.081               
H              -6.442              -2.198              1.921               
H              -8.151              -2.395              2.12                
N              -7.506              1.253               -0.971              
C              -8.539              2.053               -1.619              
C              -9.936              1.638               -1.157              
O              -10.941             2.106               -1.693              
C              -8.449              1.944               -3.155              
O              -9.481              2.73                -3.766              
C              -8.573              0.497               -3.607              
H              -7.167              0.345               -1.342              
H              -8.4                3.02                -1.37               
H              -7.546              2.314               -3.458              
H              -9.519              0.305               -3.878              
H              -7.968              0.332               -4.389              
H              -8.315              -0.117              -2.857              
H              -9.134              3.646               -3.993              
N              -9.989              0.761               -0.159              
C              -11.261             0.293               0.383               
C              -11.142             -1.162              0.843               
C              -12.447             -1.75               1.355               
C              -13.519             -1.808              0.285               
O              -13.587             -2.828              -0.432              
O              -14.291             -0.833              0.163               
H              -9.065              0.445               0.194               
H              -11.964             0.318               -0.333              
H              -10.856             -1.697              0.07                
H              -10.492             -1.191              1.579               
H              -12.274             -2.67               1.654               
H              -12.781             -1.177              2.08                
H              7.16728             -0.716242           -1.08864            
H              -11.5705            0.924946            1.22177             
