285
2.xyz
C              4.171               -5.652              -2.497              
C              4.366               -7.078              -1.988              
O              5.492               -7.516              -1.756              
C              5.013               -5.424              -3.755              
C              4.773               -6.484              -4.814              
O              3.679               -6.485              -5.415              
O              5.681               -7.311              -5.041              
H              3.19                -5.54               -2.686              
H              4.771               -4.538              -4.13               
H              5.969               -5.445              -3.493              
N              3.261               -7.795              -1.814              
C              3.311               -9.17               -1.33               
C              3.636               -10.139             -2.463              
O              4.139               -11.238             -2.227              
C              1.98                -9.552              -0.68               
C              1.769               -8.929              0.664               
H              2.378               -7.302              -2.048              
H              4.04                -9.239              -0.638              
H              1.228               -9.266              -1.283              
H              1.944               -10.551             -0.574              
N              1.745               -9.688              1.809               
C              1.578               -7.627              0.991               
C              1.541               -8.839              2.801               
N              1.433               -7.579              2.354               
H              1.857               -10.658             1.875               
H              1.548               -6.857              0.364               
H              1.472               -9.095              3.777               
N              3.347               -9.727              -3.694              
C              3.611               -10.561             -4.86               
C              5.095               -10.891             -4.973              
O              5.468               -12.008             -5.332              
C              3.124               -9.869              -6.124              
H              2.926               -8.78               -3.75               
H              3.097               -11.423             -4.766              
H              3.75                -9.127              -6.361              
H              3.091               -10.528             -6.875              
H              2.209               -9.495              -5.97               
N              5.938               -9.911              -4.663              
C              7.383               -10.096             -4.727              
C              8.064               -9.554              -3.472              
O              9.267               -9.291              -3.475              
C              7.949               -9.401              -5.966              
O              8.6                 -10.327             -6.819              
H              5.486               -9.021              -4.377              
H              7.571               -11.084             -4.776              
H              7.201               -8.972              -6.464              
H              8.606               -8.712              -5.675              
H              7.94                -10.702             -7.469              
N              7.292               -9.391              -2.4                
C              7.826               -8.883              -1.14               
C              8.677               -7.635              -1.365              
O              9.906               -7.695              -1.329              
C              8.657               -9.962              -0.444              
C              8.071               -11.359             -0.576              
C              8.975               -12.269             -1.392              
N              8.266               -12.89              -2.507              
C              8.87                -13.57              -3.476              
N              10.189              -13.707             -3.468              
N              8.158               -14.114             -4.453              
H              6.296               -9.652              -2.536              
H              7.058               -8.642              -0.535              
H              9.564               -9.968              -0.85               
H              8.71                -9.74               0.523               
H              7.961               -11.76              0.33                
H              7.188               -11.307             -1.035              
H              9.729               -11.721             -1.745              
H              9.325               -12.98              -0.787              
H              7.268               -12.798             -2.543              
H              10.745              -13.326             -2.735              
H              10.64               -14.208             -4.218              
H              7.158               -14.025             -4.444              
H              8.609               -14.609             -5.191              
N              8.015               -6.505              -1.596              
C              8.711               -5.244              -1.825              
C              7.873               -4.063              -1.344              
O              6.928               -4.233              -0.574              
C              9.037               -5.08               -3.31               
C              9.614               -6.333              -3.949              
C              9.855               -6.139              -5.437              
N              10.731              -7.169              -5.988              
C              11.397              -7.035              -7.131              
N              11.289              -5.917              -7.836              
N              12.173              -8.017              -7.569              
H              6.981               -6.598              -1.599              
H              9.577               -5.252              -1.312              
H              8.198               -4.847              -3.789              
H              9.705               -4.35               -3.404              
H              10.485              -6.555              -3.519              
H              8.975               -7.089              -3.834              
H              8.974               -6.174              -5.901              
H              10.275              -5.244              -5.568              
H              10.836              -8.025              -5.476              
H              10.73               -5.157              -7.518              
H              11.783              -5.832              -8.711              
H              12.269              -8.853              -7.022              
H              12.66               -7.928              -8.434              
N              8.225               -2.867              -1.804              
C              7.504               -1.659              -1.422              
C              7.66                -0.568              -2.475              
O              8.608               -0.579              -3.26               
C              7.989               -1.118              -0.064              
O              9.354               -0.692              -0.164              
C              7.862               -2.181              1.017               
H              9.041               -2.869              -2.446              
H              6.524               -1.883              -1.341              
H              7.421               -0.307              0.189               
H              8.382               -2.997              0.754               
H              8.221               -1.829              1.884               
H              6.898               -2.43               1.138               
H              9.963               -1.488              -0.25               
N              6.724               0.377               -2.485              
C              6.759               1.478               -3.44               
C              6.001               2.689               -2.913              
O              5.134               2.568               -2.047              
C              6.167               1.066               -4.801              
O              6.102               2.202               -5.671              
C              4.777               0.473               -4.63               
H              5.982               0.263               -1.768              
H              7.72                1.745               -3.586              
H              6.781               0.371               -5.23               
H              4.845               -0.515              -4.473              
H              4.319               0.899               -3.846              
H              4.233               0.637               -5.456              
H              7.024               2.565               -5.842              
N              6.345               3.858               -3.437              
C              5.715               5.106               -3.025              
C              4.372               5.315               -3.711              
O              3.536               6.083               -3.236              
C              6.64                6.277               -3.347              
C              7.805               6.366               -2.419              
C              9.123               6.45                -2.757              
C              7.751               6.37                -0.995              
N              9.895               6.504               -1.622              
C              9.073               6.46                -0.526              
C              6.708               6.307               -0.072              
C              9.379               6.488               0.832               
C              7.01                6.335               1.276               
C              8.337               6.426               1.717               
H              7.094               3.808               -4.159              
H              5.543               5.05                -2.031              
H              6.997               6.162               -4.264              
H              6.129               7.122               -3.267              
H              9.478               6.469               -3.689              
H              10.891              6.565               -1.597              
H              5.758               6.244               -0.374              
H              10.335              6.551               1.135               
H              6.272               6.289               1.942               
H              8.515               6.446               2.701               
N              4.174               4.645               -4.837              
C              2.937               4.781               -5.591              
C              1.991               3.616               -5.328              
O              2.397               2.454               -5.347              
C              3.222               4.882               -7.1                
C              4.35                5.886               -7.354              
C              1.962               5.285               -7.853              
C              5.435               5.358               -8.267              
H              4.958               4.031               -5.126              
H              2.48                5.607               -5.24               
H              3.526               3.992               -7.416              
H              3.955               6.708               -7.759              
H              4.758               6.125               -6.475              
H              2.154               5.313               -8.833              
H              1.24                4.619               -7.675              
H              1.665               6.188               -7.547              
H              5.037               5.124               -9.153              
H              6.135               6.06                -8.39               
H              5.845               4.544               -7.858              
N              0.727               3.94                -5.078              
C              -0.285              2.927               -4.806              
C              -0.648              2.161               -6.077              
O              -0.748              2.748               -7.155              
C              -1.538              3.576               -4.214              
C              -2.275              4.435               -5.223              
O              -2.956              3.865               -6.102              
O              -2.172              5.676               -5.134              
H              0.527               4.96                -5.093              
H              0.12                2.262               -4.169              
H              -2.143              2.852               -3.908              
H              -1.258              4.146               -3.452              
N              -0.862              0.838               -5.968              
C              -1.223              0.007               -7.107              
C              -2.721              0.035               -7.38               
O              -3.162              -0.156              -8.513              
C              -0.781              -1.396              -6.687              
C              -0.651              -1.374              -5.194              
C              -0.778              0.056               -4.727              
H              -0.706              0.283               -7.933              
H              -1.463              -2.085              -6.975              
H              0.1                 -1.636              -7.119              
H              -1.37               -1.953              -4.77               
H              0.245               -1.763              -4.914              
H              -1.604              0.185               -4.171              
H              0.022               0.334               -4.186              
N              -3.496              0.278               -6.33               
C              -4.947              0.337               -6.448              
C              -5.366              1.343               -7.518              
O              -6.454              1.243               -8.085              
C              -5.572              0.711               -5.103              
C              -4.773              1.745               -4.325              
C              -5.666              2.558               -3.403              
N              -5.577              2.111               -2.017              
C              -5.97               2.845               -0.981              
N              -6.478              4.054               -1.178              
N              -5.855              2.372               0.252               
H              -2.988              0.42                -5.435              
H              -5.291              -0.572              -6.712              
H              -6.478              1.084               -5.273              
H              -5.635              -0.111              -4.549              
H              -4.087              1.285               -3.768              
H              -4.332              2.371               -4.962              
H              -5.383              3.513               -3.461              
H              -6.607              2.462               -3.721              
H              -5.199              1.201               -1.836              
H              -6.593              4.424               -2.095              
H              -6.755              4.611               -0.384              
H              -5.488              1.449               0.396               
H              -6.132              2.926               1.033               
N              -4.493              2.31                -7.793              
C              -4.773              3.332               -8.8                
C              -3.527              3.626               -9.626              
O              -3.535              3.5                 -10.85              
C              -5.275              4.634               -8.155              
C              -5.878              4.433               -6.777              
H              -3.615              2.275               -7.242              
H              -5.459              2.95                -9.427              
H              -4.502              5.261               -8.077              
H              -5.97               5.03                -8.754              
O              -6.902              3.767               -6.625              
N              -5.241              5.012               -5.765              
H              -4.414              5.55                -5.937              
H              -5.586              4.912               -4.832              
N              -2.456              4.02                -8.944              
C              -1.213              4.33                -9.625              
C              -0.75               5.75                -9.365              
O              -0.166              6.39                -10.24              
H              -2.587              4.083               -7.92               
H              -0.492              3.683               -9.322              
H              -1.333              4.196               -10.623             
N              -1.012              6.244               -8.159              
C              -0.619              7.598               -7.785              
C              0.217               7.59                -6.51               
O              -0.032              6.803               -5.597              
C              -1.857              8.475               -7.59               
C              -2.576              8.811               -8.886              
C              -3.89               8.056               -9.007              
N              -3.939              7.234               -10.212             
C              -3.938              7.733               -11.444             
N              -3.893              9.045               -11.631             
N              -3.983              6.92                -12.491             
H              -1.51               5.595               -7.52               
H              -0.067              7.994               -8.529              
H              -2.493              7.989               -7                  
H              -1.572              9.327               -7.165              
H              -2.775              9.787               -8.913              
H              -2.001              8.559               -9.66               
H              -3.986              7.472               -8.205              
H              -4.629              8.725               -9.033              
H              -3.976              6.238               -10.104             
H              -3.839              9.675               -10.861             
H              -3.912              9.414               -12.569             
H              -3.998              5.927               -12.346             
H              -4.001              7.29                -13.417             
N              1.21                8.472               -6.454              
C              2.083               8.566               -5.29               
C              1.277               8.796               -4.016              
O              0.381               9.639               -3.98               
C              3.102               9.68                -5.482              
H              1.307               9.075               -7.293              
H              2.592               7.701               -5.195              
H              3.632               9.796               -4.643              
H              3.717               9.444               -6.234              
H              2.628               10.534              -5.696              
N              1.602               8.041               -2.972              
C              0.908               8.163               -1.695              
C              0.909               9.609               -1.213              
O              -0.136              10.145              -0.852              
C              1.563               7.262               -0.647              
O              0.63                6.34                -0.11               
O              1.839               10.407              -1.109              
H              2.377               7.371               -3.141              
H              -0.049              7.883               -1.831              
H              2.307               6.758               -1.076              
H              1.916               7.832               0.09                
H              -0.282              6.546               -0.462              
H              4.43159             -4.94813            -1.74727            
