256
0.xyz
N              1.366               -10.674             -3.826              
C              0.208               -10.277             -4.626              
C              -0.952              -9.839              -3.74               
O              -1.365              -10.576             -2.847              
C              -0.165              -11.555             -5.399              
C              0.885               -12.568             -5.063              
C              1.497               -12.131             -3.763              
H              0.456               -9.547              -5.276              
H              -1.079              -11.879             -5.121              
H              -0.185              -11.373             -6.39               
H              0.473               -13.485             -4.977              
H              1.58                -12.607             -5.793              
H              0.996               -12.498             -2.982              
H              2.458               -12.399             -3.703              
H              1.17                -10.537             -2.857              
H              2.161               -10.132             -4.09               
N              -1.492              -8.658              -3.989              
C              -2.506              -8.106              -3.104              
C              -3.92               -8.51               -3.515              
O              -4.203              -8.761              -4.689              
C              -2.375              -6.559              -2.951              
C              -2.291              -5.672              -4.226              
C              -1.023              -5.938              -5.025              
C              -3.511              -5.835              -5.115              
H              -1.144              -8.179              -4.835              
H              -2.339              -8.451              -2.167              
H              -3.172              -6.243              -2.427              
H              -1.545              -6.381              -2.415              
H              -2.315              -4.711              -3.941              
H              -1.003              -6.896              -5.311              
H              -1.008              -5.35               -5.834              
H              -0.223              -5.743              -4.457              
H              -4.334              -5.573              -4.608              
H              -3.419              -5.25               -5.922              
H              -3.59               -6.79               -5.405              
N              -4.808              -8.615              -2.517              
C              -6.233              -8.819              -2.695              
C              -6.924              -7.467              -2.617              
O              -7.026              -6.884              -1.535              
C              -6.594              -9.692              -1.487              
C              -5.479              -9.492              -0.484              
C              -4.494              -8.526              -1.093              
H              -6.431              -9.271              -3.562              
H              -7.475              -9.409              -1.093              
H              -6.659              -10.66              -1.752              
H              -5.854              -9.128              0.381               
H              -5.037              -10.377             -0.28               
H              -4.638              -7.6                -0.753              
H              -3.553              -8.809              -0.916              
N              -7.396              -6.912              -3.732              
C              -7.52               -5.482              -3.799              
C              -8.841              -4.884              -3.325              
O              -9.802              -4.714              -4.082              
C              -7.325              -5.22               -5.292              
C              -7.777              -6.47               -5.99               
C              -7.807              -7.581              -4.968              
H              -6.734              -5.025              -3.3                
H              -7.874              -4.429              -5.59               
H              -6.358              -5.028              -5.498              
H              -8.695              -6.332              -6.396              
H              -7.143              -6.697              -6.746              
H              -8.726              -7.964              -4.877              
H              -7.166              -8.312              -5.208              
N              -8.864              -4.617              -2.028              
C              -9.366              -3.371              -1.495              
C              -8.17               -2.451              -1.429              
O              -8.265              -1.222              -1.353              
H              -8.487              -5.388              -1.425              
H              -10.046             -2.991              -2.102              
H              -9.73               -3.511              -0.588              
N              -7.029              -3.144              -1.448              
C              -5.692              -2.593              -1.377              
C              -5.197              -2.297              -2.788              
O              -5.596              -2.966              -3.741              
C              -4.752              -3.635              -0.763              
C              -5.189              -4.161              0.575               
C              -6.109              -5.145              0.806               
C              -4.701              -3.762              1.853               
N              -6.232              -5.366              2.153               
C              -5.376              -4.532              2.82                
C              -3.765              -2.825              2.274               
C              -5.134              -4.39               4.183               
C              -3.522              -2.688              3.621               
C              -4.204              -3.465              4.564               
H              -7.199              -4.2                -1.524              
H              -5.739              -1.722              -0.887              
H              -4.689              -4.415              -1.379              
H              -3.853              -3.224              -0.638              
H              -6.617              -5.631              0.098               
H              -6.846              -6.028              2.582               
H              -3.273              -2.258              1.612               
H              -5.634              -4.954              4.848               
H              -2.847              -2.021              3.931               
H              -3.998              -3.332              5.535               
N              -4.341              -1.308              -2.921              
C              -3.844              -0.908              -4.208              
C              -2.344              -0.833              -4.087              
O              -1.819              -0.607              -2.995              
C              -4.402              0.442               -4.668              
C              -3.963              1.591               -3.791              
C              -3.948              2.914               -4.523              
O              -3.315              2.998               -5.594              
O              -4.545              3.885               -4.019              
H              -4.061              -0.849              -2.025              
H              -4.093              -1.578              -4.899              
H              -4.067              0.607               -5.575              
H              -5.38               0.387               -4.63               
H              -4.598              1.672               -3.043              
H              -3.046              1.414               -3.479              
N              -1.654              -1.07               -5.165              
C              -0.235              -1.073              -5.125              
C              0.281               0.336               -5.404              
O              0.213               0.829               -6.533              
C              0.27                -2.058              -6.183              
C              1.766               -2.238              -6.187              
C              2.481               -1.076              -6.871              
C              3.972               -1.336              -7.051              
N              4.628               -0.293              -7.889              
H              -2.217              -1.249              -6.022              
H              0.084               -1.347              -4.212              
H              -0.159              -2.943              -6.009              
H              -0.015              -1.719              -7.079              
H              2.097               -2.302              -5.242              
H              2                   -3.085              -6.672              
H              2.073               -0.934              -7.771              
H              2.367               -0.256              -6.314              
H              4.409               -1.355              -6.147              
H              4.094               -2.233              -7.486              
H              4.211               -0.288              -8.797              
H              4.507               0.601               -7.459              
H              5.603               -0.498              -7.969              
N              0.763               0.991               -4.363              
C              1.447               2.263               -4.521              
C              2.895               2.13                -4.096              
O              3.193               1.629               -3.012              
C              0.787               3.381               -3.706              
C              -0.619              3.744               -4.151              
C              -1.211              4.828               -3.261              
N              -1.413              6.098               -3.964              
C              -0.826              7.248               -3.621              
N              0.079               7.276               -2.644              
N              -1.136              8.369               -4.259              
H              0.614               0.53                -3.445              
H              1.417               2.531               -5.489              
H              0.745               3.086               -2.753              
H              1.357               4.197               -3.781              
H              -0.596              4.088               -5.084              
H              -1.205              2.942               -4.092              
H              -2.091              4.501               -2.917              
H              -0.586              4.974               -2.494              
H              -2.033              6.105               -4.755              
H              0.345               6.441               -2.171              
H              0.499               8.151               -2.383              
H              -1.799              8.342               -5.012              
H              -0.715              9.233               -3.995              
N              3.791               2.561               -4.963              
C              5.189               2.661               -4.61               
C              5.448               4.047               -4.033              
O              4.761               5.009               -4.391              
C              6.099               2.443               -5.846              
O              5.285               2.358               -7.029              
C              6.938               1.179               -5.722              
H              3.412               2.815               -5.897              
H              5.396               1.984               -3.904              
H              6.716               3.247               -5.941              
H              6.34                0.375               -5.704              
H              7.561               1.107               -6.504              
H              7.474               1.209               -4.876              
H              4.392               1.954               -6.807              
N              6.404               4.149               -3.133              
C              6.872               5.446               -2.698              
C              7.992               5.797               -3.641              
O              8.655               4.889               -4.144              
C              7.325               5.492               -1.23               
C              8.54                4.649               -0.913              
O              9.668               5.096               -1.22               
O              8.378               3.58                -0.308              
H              6.777               3.251               -2.778              
H              6.141               6.094               -2.852              
H              7.527               6.448               -1.006              
H              6.558               5.179               -0.667              
N              8.191               7.091               -3.87               
C              8.768               7.619               -5.104              
C              9.751               6.683               -5.822              
O              9.58                6.443               -7.019              
C              9.447               8.953               -4.798              
O              8.545               9.832               -4.138              
H              7.893               7.714               -3.075              
H              8                   7.81                -5.752              
H              10.228              8.79                -4.207              
H              9.736               9.371               -5.652              
H              7.752               9.315               -3.821              
N              10.759              6.142               -5.148              
C              11.725              5.33                -5.87               
C              11.337              3.843               -5.902              
O              10.781              3.346               -6.884              
C              13.11               5.489               -5.226              
C              14.212              4.781               -5.993              
H              10.79               6.336               -4.148              
H              11.73               5.647               -6.83               
H              13.325              6.463               -5.184              
H              13.07               5.111               -4.303              
O              14.474              3.595               -5.785              
N              14.883              5.513               -6.862              
H              14.661              6.483               -6.985              
H              15.62               5.104               -7.405              
N              11.64               3.161               -4.81               
C              11.57               1.709               -4.765              
C              10.279              1.073               -4.313              
O              9.708               0.234               -5.008              
H              11.929              3.745               -3.997              
H              11.814              1.339               -5.706              
H              12.344              1.362               -4.163              
N              9.85                1.458               -3.13               
C              9.107               0.556               -2.249              
C              7.602               0.596               -2.456              
O              7.006               1.659               -2.533              
C              9.421               0.936               -0.812              
C              8.867               0.008               0.245               
C              8.789               0.75                1.561               
N              8.938               -0.121              2.724               
C              9.528               0.274               3.852               
N              9.974               1.519               3.955               
N              9.676               -0.56               4.87                
H              10.077              2.44                -2.873              
H              9.432               -0.395              -2.416              
H              10.419              0.965               -0.706              
H              9.052               1.854               -0.642              
H              7.956               -0.279              -0.007              
H              9.471               -0.766              0.359               
H              9.515               1.441               1.574               
H              7.899               1.209               1.608               
H              8.584               -1.051              2.672               
H              9.863               2.177               3.218               
H              10.439              1.809               4.805               
H              9.317               -1.497              4.788               
H              10.132              -0.269              5.703               
N              6.996               -0.581              -2.522              
C              5.549               -0.683              -2.572              
C              4.972               -0.904              -1.184              
O              5.505               -1.663              -0.372              
C              5.05                -1.815              -3.506              
C              5.704               -3.142              -3.146              
C              3.514               -1.923              -3.449              
H              7.632               -1.401              -2.534              
H              5.183               0.187               -2.926              
H              5.338               -1.587              -4.431              
H              6.566               -2.971              -2.669              
H              5.093               -3.665              -2.552              
H              5.883               -3.663              -3.98               
H              3.133               -1.517              -4.276              
H              3.262               -2.886              -3.392              
H              3.188               -1.434              -2.644              
N              3.9                 -0.201              -0.93               
H              3.681               0.532               -1.658              
H              3.33657             -0.341857           -0.120939           
