185
1.xyz
C              -5.594              -35.425             15.99               
O              -5.594              -36.635             15.821              
N              -4.502              -34.68              15.889              
C              -3.207              -35.26              15.548              
C              -3.214              -35.809             14.124              
O              -4.033              -36.659             13.779              
C              -2.878              -36.379             16.532              
C              -1.41               -36.768             16.423              
H              -4.644              -33.667             16.07               
H              -2.531              -34.515             15.572              
H              -3.051              -36.057             17.449              
H              -3.43               -37.167             16.312              
O              -0.633              -36.091             15.75               
N              -0.985              -37.829             17.051              
H              -1.655              -38.37              17.593              
H              -0.037              -38.116             17.012              
N              -2.294              -35.309             13.303              
C              -2.197              -35.742             11.912              
C              -2.355              -37.252             11.788              
O              -3.425              -37.736             11.424              
C              -0.85               -35.317             11.325              
H              -1.667              -34.601             13.728              
H              -2.932              -35.297             11.383              
H              -0.405              -36.109             10.911              
H              -0.999              -34.615             10.631              
H              -0.273              -34.951             12.053              
N              -1.286              -37.993             12.081              
C              -1.328              -39.454             11.989              
C              -2.754              -39.956             12.19               
O              -3.323              -40.631             11.326              
C              -0.412              -40.072             13.047              
C              1.044               -39.731             12.725              
C              1.536               -40.587             11.563              
O              1.614               -41.793             11.733              
O              1.828               -40.025             10.521              
H              -0.449              -37.461             12.371              
H              -0.993              -39.744             11.088              
H              -0.625              -39.672             13.899              
H              -0.505              -41.031             13.003              
H              1.085               -38.803             12.447              
H              1.587               -39.945             13.5                
N              -3.336              -39.601             13.326              
C              -4.7                -40.002             13.615              
C              -5.648              -39.34              12.625              
O              -6.474              -40.008             11.999              
C              -5.073              -39.611             15.038              
C              -4.202              -40.378             16.002              
C              -2.882              -39.972             16.224              
C              -4.713              -41.497             16.669              
C              -2.071              -40.685             17.116              
C              -3.903              -42.21              17.561              
C              -2.582              -41.804             17.785              
O              -1.784              -42.506             18.664              
H              -2.752              -39.034             13.963              
H              -4.773              -40.996             13.499              
H              -4.903              -38.655             15.156              
H              -6.006              -39.859             15.198              
H              -2.517              -39.181             15.752              
H              -5.645              -41.784             16.513              
H              -1.128              -40.395             17.277              
H              -4.266              -43.008             18.038              
H              -1.372              -41.868             19.311              
N              -5.517              -38.021             12.469              
C              -6.371              -37.309             11.525              
C              -6.422              -38.094             10.221              
O              -7.486              -38.277             9.634               
C              -5.858              -35.874             11.294              
O              -6.948              -34.969             11.4                
C              -5.222              -35.732             9.904               
H              -4.795              -37.576             13.047              
H              -7.295              -37.262             11.902              
H              -5.179              -35.651             12.021              
H              -4.654              -36.533             9.714               
H              -5.942              -35.662             9.213               
H              -4.655              -34.908             9.879               
H              -6.863              -34.406             12.231              
N              -5.268              -38.593             9.791               
C              -5.219              -39.39              8.581               
C              -6.085              -40.621             8.795               
O              -6.907              -40.966             7.944               
C              -3.767              -39.777             8.254               
C              -3.706              -41.165             7.658               
C              -3.977              -41.357             6.297               
C              -3.371              -42.259             8.465               
C              -3.913              -42.642             5.745               
C              -3.308              -43.544             7.913               
C              -3.579              -43.736             6.553               
H              -4.447              -38.37              10.373              
H              -5.65               -38.857             7.857               
H              -3.43               -39.147             7.592               
H              -3.262              -39.782             9.087               
H              -4.212              -40.589             5.724               
H              -3.177              -42.124             9.428               
H              -4.109              -42.773             4.77                
H              -3.068              -44.329             8.501               
H              -3.535              -44.649             6.157               
N              -5.934              -41.259             9.96                
C              -6.76               -42.419             10.265              
C              -8.207              -42.059             9.966               
O              -9.01               -42.907             9.583               
C              -6.618              -42.823             11.742              
C              -6.439              -44.341             11.85               
S              -6.799              -44.874             13.541              
C              -5.707              -43.705             14.385              
H              -5.219              -40.873             10.585              
H              -6.494              -43.163             9.659               
H              -5.82               -42.383             12.125              
H              -7.439              -42.567             12.23               
H              -7.06               -44.788             11.192              
H              -5.492              -44.575             11.593              
H              -6.098              -43.476             15.275              
H              -4.81               -44.125             14.507              
H              -5.621              -42.879             13.831              
N              -8.518              -40.777             10.143              
C              -9.859              -40.276             9.889               
C              -10.06              -39.99              8.403               
O              -11.161             -40.155             7.875               
C              -10.077             -38.991             10.695              
C              -11.575             -38.774             10.959              
C              -11.765             -38.072             12.299              
C              -12.18              -37.904             9.861               
H              -7.733              -40.181             10.472              
H              -10.525             -40.977             10.168              
H              -9.638              -39.093             11.556              
H              -9.759              -38.242             10.167              
H              -12.03              -39.659             10.98               
H              -11.3               -37.187             12.28               
H              -12.741             -37.933             12.467              
H              -11.378             -38.636             13.028              
H              -12.064             -38.356             8.977               
H              -13.154             -37.769             10.042              
H              -11.717             -37.018             9.846               
N              -8.99               -39.578             7.731               
C              -9.062              -39.283             6.318               
C              -9.351              -40.56              5.572               
O              -9.842              -40.543             4.443               
C              -7.745              -38.675             5.836               
H              -8.126              -39.491             8.299               
H              -9.81               -38.636             6.157               
H              -7.93               -38.025             5.1                 
H              -7.301              -38.203             6.596               
H              -7.149              -39.402             5.499               
N              -9.051              -41.679             6.226               
C              -9.295              -42.971             5.623               
C              -10.572             -43.588             6.18                
O              -11.351             -44.196             5.445               
C              -8.114              -43.915             5.856               
C              -7.872              -44.07              7.353               
C              -6.758              -45.081             7.601               
O              -7.015              -46.264             7.447               
O              -5.666              -44.659             7.939               
H              -8.645              -41.542             7.165               
H              -9.381              -42.875             4.624               
H              -8.351              -44.783             5.504               
H              -7.327              -43.511             5.47                
H              -7.578              -43.215             7.707               
H              -8.681              -44.418             7.762               
N              -10.785             -43.422             7.481               
C              -11.976             -43.961             8.12                
C              -13.188             -43.119             7.743               
O              -14.326             -43.474             8.05                
C              -11.794             -43.982             9.647               
C              -11.053             -45.264             10.059              
C              -10.172             -44.995             11.273              
H              -10.052             -42.892             7.982               
H              -12.126             -44.888             7.77                
H              -11.248             -43.213             9.916               
H              -12.677             -43.988             10.076              
H              -11.721             -45.951             10.295              
H              -10.483             -45.553             9.307               
O              -9.231              -45.743             11.538              
N              -10.426             -43.966             12.03               
H              -9.89               -43.745             12.851              
H              -11.217             -43.348             11.772              
N              -12.93              -41.999             7.072               
C              -14.006             -41.103             6.65                
C              -13.668             -39.671             7.041               
O              -12.54              -39.231             6.297               
H              -11.929             -41.822             6.88                
H              -14.856             -41.401             7.102               
H              -14.439             -39.087             6.832               
H              -13.448             -39.642             8.005               
H              -11.704             -39.517             6.763               
H              -14.1669            -41.1533            5.56564             
H              -6.47835            -34.905             16.2664             
