168
2.xyz
C              -14.23              -41.173             5.14                
O              -14.952             -40.352             4.575               
N              -13.619             -42.159             4.493               
C              -13.772             -42.324             3.048               
C              -13.151             -41.149             2.292               
O              -13.396             -40.973             1.099               
C              -15.26              -42.439             2.683               
C              -16.065             -42.925             3.884               
H              -13.042             -42.783             5.082               
H              -13.256             -43.147             2.786               
H              -15.589             -41.548             2.423               
H              -15.354             -43.095             1.954               
O              -15.87              -44.046             4.353               
N              -16.964             -42.139             4.413               
H              -17.102             -41.221             3.996               
H              -17.504             -42.413             5.195               
N              -12.35              -40.35              2.99                
C              -11.7               -39.196             2.371               
C              -12.73              -38.218             1.808               
O              -12.489             -37.582             0.782               
C              -10.772             -39.652             1.239               
C              -9.736              -40.59              1.773               
C              -9.921              -41.913             1.985               
C              -8.359              -40.303             2.156               
N              -8.747              -42.455             2.474               
C              -7.756              -41.503             2.601               
C              -7.583              -39.13              2.162               
C              -6.431              -41.537             3.037               
C              -6.248              -39.161             2.599               
C              -5.674              -40.361             3.037               
H              -12.229             -40.609             3.985               
H              -11.185             -38.713             3.088               
H              -11.298             -40.137             0.572               
H              -10.308             -38.872             0.873               
H              -10.755             -42.423             1.822               
H              -8.626              -43.434             2.711               
H              -7.976              -38.259             1.853               
H              -6.023              -42.41              3.352               
H              -5.723              -38.325             2.593               
H              -4.738              -40.38              3.345               
N              -13.874             -38.093             2.477               
C              -14.91              -37.178             2.015               
C              -14.558             -35.748             2.381               
O              -14.285             -34.923             1.511               
C              -16.256             -37.554             2.641               
C              -17.397             -36.947             1.832               
H              -13.957             -38.681             3.321               
H              -14.927             -37.232             1.011               
H              -16.348             -38.534             2.628               
H              -16.291             -37.191             3.556               
O              -17.232             -35.892             1.218               
N              -18.552             -37.553             1.793               
H              -18.654             -38.421             2.317               
H              -19.315             -37.195             1.276               
N              -14.591             -35.481             3.677               
C              -14.308             -34.171             4.238               
C              -15.411             -33.868             5.223               
O              -15.275             -34.133             6.413               
C              -14.253             -33.075             3.165               
C              -14.097             -31.729             3.833               
C              -12.943             -31.449             4.575               
C              -15.103             -30.761             3.712               
C              -12.794             -30.205             5.197               
C              -14.953             -29.515             4.334               
C              -13.799             -29.237             5.077               
O              -13.652             -28.009             5.69                
H              -14.844             -36.311             4.276               
H              -13.447             -34.218             4.732               
H              -13.473             -33.236             2.598               
H              -15.097             -33.083             2.671               
H              -12.229             -32.132             4.662               
H              -15.916             -30.955             3.188               
H              -11.97              -30.005             5.727               
H              -15.668             -28.824             4.249               
H              -13.364             -28.149             6.635               
N              -16.528             -33.367             4.71                
C              -17.677             -33.08              5.554               
C              -17.847             -34.201             6.57                
O              -17.989             -33.952             7.77                
C              -18.939             -32.959             4.699               
C              -20.066             -32.349             5.535               
C              -21.364             -32.345             4.736               
O              -21.414             -33.017             3.72                
O              -22.291             -31.669             5.152               
H              -16.508             -33.204             3.688               
H              -17.54              -32.212             6.033               
H              -18.752             -32.352             3.972               
H              -19.214             -33.847             4.44                
H              -20.202             -32.907             6.317               
H              -19.837             -31.427             5.731               
N              -17.803             -35.443             6.086               
C              -17.928             -36.583             6.979               
C              -16.672             -36.693             7.82                
O              -16.736             -37.021             9.001               
C              -18.181             -37.89              6.196               
C              -16.916             -38.742             6.131               
C              -19.284             -38.692             6.896               
H              -17.678             -35.514             5.067               
H              -18.701             -36.418             7.593               
H              -18.412             -37.641             5.26                
H              -16.121             -38.147             6.018               
H              -16.825             -39.265             6.977               
H              -16.978             -39.369             5.355               
H              -19.372             -39.58              6.45                
H              -19.037             -38.815             7.855               
H              -20.144             -38.19              6.828               
N              -15.528             -36.389             7.215               
C              -14.282             -36.433             7.953               
C              -14.461             -35.597             9.209               
O              -14.505             -36.121             10.323              
C              -13.138             -35.892             7.098               
H              -15.608             -36.132             6.222               
H              -14.091             -37.374             8.219               
H              -13.257             -36.196             6.154               
H              -13.143             -34.894             7.131               
H              -12.269             -36.234             7.452               
N              -14.625             -34.297             9.005               
C              -14.878             -33.38              10.108              
C              -15.838             -34.05              11.078              
O              -15.463             -34.41              12.194              
C              -15.512             -32.084             9.565               
C              -15.359             -32.035             8.038               
C              -14.826             -30.863             10.177              
C              -13.873             -32.034             7.665               
H              -14.559             -33.997             8.014               
H              -14.012             -33.273             10.59               
H              -16.479             -32.104             9.775               
H              -15.783             -32.828             7.65                
H              -15.765             -31.206             7.708               
H              -15.251             -30.033             9.823               
H              -14.924             -30.892             11.169              
H              -13.858             -30.872             9.936               
H              -13.452             -32.865             8.017               
H              -13.79              -32.002             6.673               
H              -13.44              -31.234             8.07                
N              -17.074             -34.252             10.621              
C              -18.068             -34.916             11.444              
C              -17.455             -36.186             12.016              
O              -17.722             -36.558             13.154              
C              -19.312             -35.255             10.608              
C              -20.475             -34.339             11.009              
C              -21.735             -34.72              10.221              
C              -21.757             -33.973             8.884               
N              -22.723             -34.634             7.962               
H              -17.249             -33.905             9.665               
H              -18.325             -34.315             12.2                
H              -19.106             -35.098             9.665               
H              -19.569             -36.181             10.794              
H              -20.657             -34.451             11.977              
H              -20.237             -33.401             10.799              
H              -21.717             -35.689             10.041              
H              -22.529             -34.457             10.742              
H              -22.041             -33.036             9.045               
H              -20.848             -34                 8.487               
H              -23.199             -33.937             7.427               
H              -22.228             -35.248             7.349               
H              -23.386             -35.157             8.497               
N              -16.604             -36.828             11.216              
C              -15.927             -38.04              11.654              
C              -15.321             -37.806             13.025              
O              -15.656             -38.485             13.99               
H              -16.473             -36.399             10.284              
H              -16.584             -38.793             11.703              
H              -15.203             -38.275             11.004              
N              -14.452             -36.81              13.119              
H              -14.248             -36.313             12.242              
H              -14.0737            -41.1241            6.19396             
H              -14.0391            -36.5838            14.0092             
