259
0.xyz
N              1.329               0                   0                   
C              2.093               -0.001              -1.242              
C              2.036               -1.369              -1.915              
O              3.038               -2.08               -1.981              
C              3.548               0.387               -0.972              
C              3.697               1.709               -0.236              
S              3.146               3.117               -1.218              
C              3.223               4.429               -0.001              
H              0.829               0.864               0.095               
H              1.678               0.67                -1.867              
H              3.982               -0.335              -0.421              
H              4.036               0.454               -1.85               
H              3.172               1.652               0.643               
H              4.679               1.82                0.038               
H              3.46                4.045               0.893               
H              3.919               5.096               -0.27               
H              2.333               4.884               0.059               
H              0.672               -0.757              -0.001              
H              1.946               -0.106              0.783               
N              0.858               -1.73               -2.412              
C              0.671               -3.012              -3.08               
C              1.23                -2.977              -4.499              
O              0.477               -3.002              -5.473              
C              -0.803              -3.387              -3.1                
H              0.098               -1.033              -2.285              
H              1.16                -3.724              -2.561              
H              -1.113              -3.476              -4.046              
H              -0.934              -4.257              -2.625              
H              -1.336              -2.675              -2.642              
N              2.552               -2.919              -4.608              
C              3.21                -2.882              -5.908              
C              4.293               -3.951              -6.007              
O              5.07                -4.151              -5.074              
C              3.84                -1.503              -6.181              
C              2.793               -0.399              -6.02               
C              4.448               -1.464              -7.575              
C              3.374               0.997               -6.063              
H              3.065               -2.903              -3.705              
H              2.509               -3.121              -6.587              
H              4.553               -1.353              -5.506              
H              2.12                -0.494              -6.75               
H              2.335               -0.529              -5.142              
H              4.886               -0.579              -7.724              
H              5.128               -2.19               -7.663              
H              3.73                -1.598              -8.256              
H              3.827               1.14                -6.942              
H              2.64                1.665               -5.953              
H              4.037               1.103               -5.323              
N              4.339               -4.634              -7.146              
C              5.329               -5.682              -7.37               
C              6.438               -5.201              -8.299              
O              7.576               -5.66               -8.213              
C              4.683               -6.945              -7.969              
C              5.722               -8.043              -8.147              
C              3.535               -7.423              -7.093              
H              3.624               -4.362              -7.848              
H              5.746               -5.914              -6.483              
H              4.347               -6.712              -8.876              
H              5.279               -8.937              -8.076              
H              6.15                -7.955              -9.046              
H              6.42                -7.96               -7.436              
H              3.187               -8.29               -7.449              
H              3.864               -7.551              -6.158              
H              2.806               -6.739              -7.102              
N              6.096               -4.273              -9.188              
C              7.063               -3.73               -10.135             
C              7.594               -4.822              -11.059             
O              8.803               -5.017              -11.174             
C              8.224               -3.07               -9.388              
C              7.75                -2.136              -8.291              
H              5.103               -3.976              -9.149              
H              6.574               -3.068              -10.714             
H              8.781               -3.785              -8.978              
H              8.761               -2.546              -10.042             
O              7.826               -2.463              -7.107              
N              7.257               -0.967              -8.682              
H              7.209               -0.747              -9.658              
H              6.933               -0.306              -8.006              
N              6.68                -5.53               -11.715             
C              7.056               -6.602              -12.628             
C              6.792               -6.202              -14.076             
O              5.672               -5.837              -14.435             
C              6.286               -7.881              -12.292             
C              6.809               -9.113              -13.012             
C              8.256               -9.414              -12.676             
H              5.697               -5.258              -11.524             
H              8.045               -6.763              -12.53              
H              6.349               -8.045              -11.308             
H              5.326               -7.754              -12.547             
H              6.251               -9.899              -12.749             
H              6.734               -8.964              -13.998             
O              8.758               -9.014              -11.625             
N              8.936               -10.123             -13.57              
H              9.915               -10.352             -13.42              
H              8.459               -10.437             -14.414             
N              7.83                -6.272              -14.903             
C              7.71                -5.915              -16.311             
C              6.972               -7.002              -17.087             
O              6.853               -8.136              -16.624             
C              9.095               -5.689              -16.921             
C              9.86                -6.975              -17.189             
C              11.343              -6.812              -16.897             
N              12.077              -8.062              -17.075             
C              13.394              -8.125              -17.237             
N              14.118              -7.014              -17.242             
N              13.989              -9.3                -17.393             
H              8.715               -6.596              -14.467             
H              7.188               -5.057              -16.387             
H              8.98                -5.211              -17.785             
H              9.628               -5.139              -16.288             
H              9.506               -7.701              -16.605             
H              9.759               -7.228              -18.148             
H              11.707              -6.124              -17.52              
H              11.44               -6.504              -15.954             
H              11.557              -8.919              -17.075             
H              13.697              -6.122              -17.106             
H              15.115              -7.071              -17.385             
H              13.441              -10.14              -17.368             
H              14.975              -9.351              -17.533             
N              6.479               -6.647              -18.269             
C              5.754               -7.592              -19.109             
C              5.786               -7.163              -20.572             
O              5.944               -5.981              -20.879             
C              4.317               -7.73               -18.629             
H              6.652               -5.659              -18.535             
H              6.19                -8.498              -19.031             
H              4.106               -8.695              -18.476             
H              4.2                 -7.226              -17.774             
H              3.696               -7.36               -19.32              
N              5.637               -8.13               -21.471             
C              5.648               -7.852              -22.902             
C              4.239               -7.895              -23.482             
O              3.376               -8.622              -22.99              
C              6.535               -8.857              -23.662             
C              5.926               -10.25              -23.612             
C              6.737               -8.407              -25.101             
H              5.515               -9.081              -21.073             
H              6.011               -6.922              -23.039             
H              7.41                -8.904              -23.191             
H              5.955               -10.594             -22.673             
H              4.976               -10.211             -23.923             
H              6.445               -10.864             -24.207             
H              7.716               -8.335              -25.29              
H              6.324               -9.077              -25.718             
H              6.303               -7.516              -25.233             
N              4.013               -7.112              -24.531             
C              2.708               -7.061              -25.18              
C              2.603               -8.111              -26.281             
O              3.183               -7.958              -27.357             
C              2.453               -5.672              -25.746             
H              4.83                -6.551              -24.842             
H              1.995               -7.246              -24.492             
H              1.815               -5.181              -25.153             
H              3.315               -5.168              -25.796             
H              2.061               -5.751              -26.662             
N              1.859               -9.177              -26.006             
C              1.678               -10.253             -26.974             
C              0.813               -9.794              -28.144             
O              1.047               -10.178             -29.29              
C              1.04                -11.47              -26.3               
C              1.592               -11.84              -24.923             
C              0.79                -12.981             -24.316             
C              3.063               -12.214             -25.021             
H              1.427               -9.177              -25.062             
H              2.58                -10.519             -27.332             
H              0.068               -11.283             -26.19              
H              1.175               -12.255             -26.896             
H              1.537               -11.041             -24.325             
H              0.844               -13.782             -24.913             
H              1.163               -13.211             -23.417             
H              -0.166              -12.703             -24.218             
H              3.583               -11.438             -25.381             
H              3.409               -12.453             -24.113             
H              3.169               -12.998             -25.634             
N              -0.185              -8.969              -27.847             
C              -1.085              -8.457              -28.873             
C              -1.489              -7.017              -28.575             
O              -1.442              -6.572              -27.428             
C              -2.331              -9.338              -28.974             
C              -2.056              -10.806             -28.74              
C              -1.45               -11.584             -29.718             
C              -2.402              -11.415             -27.539             
C              -1.197              -12.926             -29.509             
C              -2.152              -12.756             -27.321             
C              -1.55               -13.507             -28.309             
O              -1.299              -14.843             -28.096             
H              -0.266              -8.726              -26.841             
H              -0.6                -8.469              -29.755             
H              -2.988              -9.03               -28.291             
H              -2.713              -9.235              -29.888             
H              -1.192              -11.164             -30.592             
H              -2.838              -10.871             -26.822             
H              -0.758              -13.474             -30.225             
H              -2.407              -13.181             -26.451             
H              -1.869              -15.168             -27.343             
N              -1.886              -6.293              -29.615             
C              -2.3                -4.903              -29.466             
C              -3.725              -4.815              -28.93              
O              -4.615              -5.536              -29.382             
C              -2.2                -4.172              -30.806             
C              -3.277              -4.604              -31.783             
O              -4.387              -4.034              -31.732             
O              -3.009              -5.511              -32.598             
H              -1.876              -6.793              -30.525             
H              -1.699              -4.484              -28.775             
H              -2.297              -3.2                -30.633             
H              -1.312              -4.372              -31.2               
N              -3.935              -3.928              -27.963             
C              -5.252              -3.747              -27.363             
C              -5.577              -2.265              -27.202             
O              -4.692              -1.449              -26.947             
C              -5.316              -4.446              -26.003             
C              -6.372              -3.888              -25.092             
C              -7.694              -4.28               -25.22              
C              -6.041              -2.972              -24.107             
C              -8.667              -3.767              -24.383             
C              -7.01               -2.456              -23.266             
C              -8.324              -2.855              -23.405             
H              -3.096              -3.386              -27.678             
H              -5.924              -4.122              -28.01              
H              -5.521              -5.399              -26.162             
H              -4.44               -4.331              -25.563             
H              -7.95               -4.941              -25.922             
H              -5.088              -2.681              -24.003             
H              -9.625              -4.063              -24.494             
H              -6.749              -1.785              -22.552             
H              -9.031              -2.486              -22.798             
N              -6.854              -1.926              -27.352             
C              -7.296              -0.542              -27.225             
C              -8.244              -0.381              -26.04              
O              -9.144              -1.191              -25.818             
C              -7.986              -0.084              -28.511             
C              -8.473              1.355               -28.46              
C              -9.614              1.619               -29.424             
O              -9.989              0.688               -30.168             
O              -10.131             2.755               -29.436             
H              -7.494              -2.715              -27.563             
H              -6.498              0.059               -27.099             
H              -7.333              -0.152              -29.242             
H              -8.769              -0.659              -28.653             
H              -8.802              1.537               -27.553             
H              -7.728              1.943               -28.713             
N              -8.037              0.69                -25.259             
C              -8.862              0.983               -24.083             
C              -10.277             1.409               -24.46              
O              -10.487             2.059               -25.483             
C              -8.119              2.138               -23.407             
C              -7.359              2.794               -24.507             
C              -6.982              1.697               -25.463             
H              -8.884              0.188               -23.457             
H              -8.769              2.777               -22.986             
H              -7.5                1.792               -22.696             
H              -7.928              3.489               -24.966             
H              -6.537              3.252               -24.145             
H              -6.983              2.019               -26.41              
H              -6.083              1.313               -25.245             
N              -11.244             1.037               -23.626             
H              -10.925             0.493               -22.802             
H              -12.212             1.27569             -23.7981            
