304
0.xyz
N              -14.272             -3.038              -5.069              
C              -13.184             -2.715              -4.127              
C              -13.535             -1.492              -3.294              
O              -13.69              -0.392              -3.826              
C              -11.907             -2.468              -4.915              
C              -12.342             -2.552              -6.338              
C              -13.614             -3.368              -6.344              
H              -12.981             -3.506              -3.54               
H              -11.529             -1.563              -4.709              
H              -11.219             -3.165              -4.709              
H              -12.51              -1.632              -6.714              
H              -11.633             -2.997              -6.901              
H              -14.202             -3.119              -7.119              
H              -13.415             -4.352              -6.394              
H              -14.691             -2.204              -5.376              
H              -14.893             -3.664              -4.671              
N              -13.669             -1.69               -1.989              
C              -13.974             -0.588              -1.098              
C              -12.736             0.217               -0.771              
O              -11.75              -0.332              -0.275              
H              -13.54              -2.668              -1.677              
H              -14.661             0.015               -1.53               
H              -14.376             -0.947              -0.243              
N              -12.766             1.507               -1.07               
C              -11.613             2.365               -0.835              
C              -11.794             3.142               0.468               
O              -12.699             3.97                0.584               
C              -11.418             3.322               -2.02               
C              -9.985              3.84                -2.232              
C              -9.864              4.518               -3.587              
C              -9.574              4.809               -1.137              
H              -13.659             1.844               -1.475              
H              -10.795             1.791               -0.749              
H              -11.683             2.841               -2.848              
H              -11.999             4.113               -1.873              
H              -9.355              3.068               -2.186              
H              -10.499             5.29                -3.634              
H              -8.929              4.85                -3.713              
H              -10.084             3.863               -4.311              
H              -9.615              4.349               -0.249              
H              -8.639              5.127               -1.303              
H              -10.195             5.594               -1.132              
N              -10.936             2.88                1.467               
C              -10.989             3.564               2.752               
C              -10.14              4.837               2.769               
O              -9.107              4.924               2.102               
C              -10.416             2.524               3.711               
C              -9.49               1.685               2.89                
C              -9.875              1.858               1.441               
H              -11.946             3.775               3.009               
H              -9.919              2.971               4.466               
H              -11.151             1.962               4.108               
H              -8.528              1.97                3.04                
H              -9.561              0.711               3.164               
H              -9.097              2.173               0.892               
H              -10.222             1                   1.051               
N              -10.561             5.8                 3.575               
C              -9.951              7.121               3.584               
C              -8.545              7.071               4.175               
O              -8.328              6.554               5.272               
C              -10.823             8.069               4.409               
O              -12.188             7.95                4.041               
H              -11.356             5.533               4.194               
H              -9.873              7.438               2.631               
H              -10.726             7.839               5.372               
H              -10.524             9.004               4.245               
H              -12.322             7.101               3.532               
N              -7.59               7.608               3.427               
C              -6.214              7.623               3.868               
C              -5.385              6.569               3.168               
O              -4.161              6.539               3.304               
H              -7.914              8.004               2.524               
H              -5.811              8.536               3.691               
H              -6.177              7.467               4.869               
N              -6.053              5.697               2.428               
C              -5.384              4.624               1.707               
C              -5.221              4.983               0.236               
O              -6.127              5.549               -0.376              
C              -6.19               3.329               1.82                
C              -6.107              2.652               3.157               
C              -6.701              3.042               4.327               
C              -5.398              1.442               3.452               
N              -6.407              2.143               5.324               
C              -5.608              1.156               4.812               
C              -4.606              0.574               2.695               
C              -5.057              0.038               5.433               
C              -4.057              -0.535              3.312               
C              -4.285              -0.795              4.669               
H              -7.085              5.843               2.407               
H              -4.463              4.518               2.097               
H              -7.152              3.532               1.652               
H              -5.856              2.68                1.14                
H              -7.263              3.857               4.44                
H              -6.725              2.199               6.27                
H              -4.438              0.747               1.727               
H              -5.229              -0.137              6.408               
H              -3.49               -1.157              2.779               
H              -3.871              -1.608              5.079               
N              -4.07               4.644               -0.327              
C              -3.847              4.798               -1.755              
C              -3.371              3.479               -2.358              
O              -2.415              2.867               -1.877              
C              -2.84               5.91                -2.057              
C              -3.254              7.284               -1.567              
C              -2.242              8.338               -1.951              
O              -1.242              8.499               -1.226              
O              -2.42               8.983               -3.003              
H              -3.357              4.267               0.328               
H              -4.698              5.082               -2.206              
H              -1.993              5.674               -1.61               
H              -2.734              5.959               -3.036              
H              -4.105              7.519               -1.99               
H              -3.306              7.262               -0.59               
N              -4.046              3.051               -3.411              
C              -3.727              1.794               -4.074              
C              -2.952              2.087               -5.324              
O              -3.49               2.623               -6.294              
C              -4.996              1.07                -4.449              
C              -6.101              1.385               -3.494              
C              -7.449              0.92                -4.004              
O              -7.476              -0.004              -4.851              
O              -8.483              1.438               -3.543              
H              -4.816              3.681               -3.723              
H              -3.185              1.219               -3.458              
H              -5.266              1.374               -5.338              
H              -4.821              0.11                -4.406              
H              -5.933              0.917               -2.645              
H              -6.155              2.36                -3.376              
N              -1.699              1.752               -5.311              
C              -0.82               2.216               -6.342              
C              -0.119              1.058               -7.023              
O              0.544               0.243               -6.38               
C              0.145               3.195               -5.708              
C              -0.575              4.367               -5.039              
C              0.372               5.104               -4.106              
N              -0.066              6.467               -3.811              
C              0.588               7.561               -4.218              
N              1.675               7.45                -4.976              
N              0.155               8.765               -3.867              
H              -1.401              1.146               -4.524              
H              -1.355              2.719               -7.038              
H              0.668               2.726               -5.012              
H              0.734               3.565               -6.41               
H              -0.887              5                   -5.734              
H              -1.335              4.023               -4.505              
H              0.432               4.586               -3.253              
H              1.272               5.135               -4.541              
H              -0.902              6.592               -3.274              
H              2.006               6.557               -5.268              
H              2.169               8.279               -5.259              
H              -0.677              8.847               -3.311              
H              0.649               9.582               -4.152              
N              -0.302              0.985               -8.331              
C              0.21                -0.116              -9.124              
C              1.379               0.367               -9.97               
O              1.211               1.213               -10.85              
C              -0.884              -0.699              -10.04              
C              -2.225              -0.988              -9.363              
C              -3.051              0.281               -9.153              
C              -4.506              -0.023              -8.825              
N              -4.646              -0.932              -7.658              
H              -0.842              1.781               -8.738              
H              0.534               -0.841              -8.511              
H              -1.044              -0.047              -10.784             
H              -0.537              -1.557              -10.427             
H              -2.748              -1.621              -9.936              
H              -2.055              -1.413              -8.473              
H              -2.655              0.797               -8.397              
H              -3.02               0.824               -9.989              
H              -4.981              0.842               -8.629              
H              -4.937              -0.448              -9.629              
H              -4.678              -0.392              -6.817              
H              -5.49               -1.46               -7.747              
H              -3.864              -1.555              -7.626              
N              2.56                -0.152              -9.687              
C              3.763               0.225               -10.412             
C              3.95                -0.701              -11.612             
O              3.573               -1.872              -11.549             
C              4.975               0.163               -9.485              
C              6.092               1.083               -9.931              
O              6.422               1.1                 -11.132             
O              6.658               1.786               -9.075              
H              2.557               -0.847              -8.909              
H              3.619               1.148               -10.775             
H              4.681               0.434               -8.576              
H              5.312               -0.771              -9.48               
N              4.567               -0.184              -12.674             
C              4.635               -0.868              -13.97              
C              5.33                -2.232              -13.902             
O              5.185               -3.046              -14.814             
C              5.342               0.016               -14.985             
H              5                   0.753               -12.506             
H              3.688               -1.009              -14.31              
H              6.284               0.177               -14.691             
H              5.346               -0.435              -15.877             
H              4.864               0.891               -15.058             
N              6.077               -2.491              -12.83              
C              6.695               -3.808              -12.641             
C              5.619               -4.852              -12.367             
O              5.865               -6.053              -12.428             
C              7.696               -3.834              -11.476             
C              8.609               -2.626              -11.373             
C              8.034               -1.602              -10.412             
C              9.136               -0.866              -9.66               
N              8.605               -0.05               -8.535              
H              6.18                -1.71               -12.164             
H              7.184               -4.058              -13.48              
H              7.173               -3.909              -10.622             
H              8.266               -4.655              -11.579             
H              9.502               -2.919              -11.038             
H              8.703               -2.209              -12.273             
H              7.505               -0.936              -10.927             
H              7.457               -2.066              -9.749              
H              9.788               -1.541              -9.299              
H              9.621               -0.265              -10.304             
H              9.02                -0.356              -7.678              
H              8.827               0.912               -8.689              
H              7.613               -0.16               -8.485              
N              4.428               -4.369              -12.053             
C              3.363               -5.219              -11.59              
C              3.382               -5.345              -10.087             
O              3.091               -6.4                -9.528              
H              4.335               -3.336              -12.17              
H              2.472               -4.84               -11.883             
H              3.455               -6.137              -12.004             
N              3.723               -4.242              -9.439              
C              3.762               -4.169              -7.991              
C              2.595               -3.327              -7.492              
O              2.574               -2.114              -7.69               
C              5.088               -3.554              -7.541              
C              6.303               -4.389              -7.91               
C              6.614               -5.422              -6.843              
N              7.111               -4.792              -5.622              
C              7.454               -5.451              -4.521              
N              7.334               -6.775              -4.456              
N              7.92                -4.773              -3.481              
H              3.96                -3.433              -10.059             
H              3.674               -5.093              -7.612              
H              5.181               -2.664              -7.973              
H              5.068               -3.458              -6.552              
H              6.129               -4.868              -8.767              
H              7.097               -3.794              -8.008              
H              5.778               -5.92               -6.639              
H              7.308               -6.038              -7.201              
H              7.199               -3.787              -5.615              
H              7.003               -7.293              -5.241              
H              7.58                -7.255              -3.61               
H              8.03                -3.78               -3.533              
H              8.165               -5.255              -2.637              
N              1.61                -3.968              -6.887              
C              0.432               -3.261              -6.415              
C              0.376               -3.272              -4.891              
O              0.004               -4.273              -4.284              
C              -0.853              -3.886              -6.986              
O              -0.702              -4.101              -8.398              
C              -2.051              -2.986              -6.742              
H              1.748               -4.99               -6.782              
H              0.485               -2.304              -6.721              
H              -1.005              -4.793              -6.542              
H              -2.895              -3.462              -7.004              
H              -2.102              -2.741              -5.771              
H              -1.966              -2.148              -7.287              
H              -0.314              -3.283              -8.835              
N              0.768               -2.164              -4.284              
C              0.803               -2.058              -2.837              
C              -0.314              -1.152              -2.323              
O              -0.545              -0.06               -2.851              
C              2.177               -1.542              -2.38               
C              2.733               -0.404              -3.218              
C              2.323               0.907               -3.012              
C              3.671               -0.647              -4.215              
C              2.828               1.94                -3.775              
C              4.18                0.383               -4.983              
C              3.756               1.675               -4.759              
O              4.257               2.705               -5.524              
H              1.044               -1.39               -4.923              
H              0.662               -2.976              -2.445              
H              2.091               -1.222              -1.438              
H              2.823               -2.302              -2.421              
H              1.648               1.106               -2.297              
H              3.982               -1.583              -4.377              
H              2.521               2.883               -3.613              
H              4.854               0.191               -5.7                
H              4.567               2.341               -6.4                
N              -1.016              -1.625              -1.304              
C              -2.016              -0.819              -0.625              
C              -3.161              -1.69               -0.106              
C              -3.882              -2.465              -1.18               
C              -3.45               -3.728              -1.561              
C              -4.999              -1.936              -1.808              
C              -4.109              -4.441              -2.541              
C              -5.664              -2.642              -2.787              
C              -5.218              -3.893              -3.152              
O              -5.886              -4.592              -4.132              
H              -0.792              -2.606              -1.038              
H              -2.358              -0.131              -1.267              
H              -2.785              -2.34               0.552               
H              -3.823              -1.096              0.349               
H              -2.644              -4.129              -1.116              
H              -5.326              -1.028              -1.544              
H              -3.786              -5.353              -2.808              
H              -6.471              -2.247              -3.234              
H              -6.777              -4.169              -4.287              
H              -1.54779            -0.304107           0.211611            
