281
0.xyz
N              -8.975              0.527               -0.354              
C              -9.454              1.466               -1.397              
C              -10.371             0.774               -2.377              
O              -11.163             -0.083              -1.984              
H              -8.845              -0.377              -0.757              
H              -9.94               2.225               -0.948              
H              -8.656              1.844               -1.88               
H              -8.108              0.857               0.015               
H              -9.651              0.473               0.378               
N              -10.27              1.135               -3.649              
C              -11.078             0.502               -4.676              
C              -10.639             -0.945              -4.871              
O              -9.454              -1.228              -5.055              
C              -10.978             1.275               -5.992              
O              -11.531             2.576               -5.866              
H              -9.583              1.887               -3.838              
H              -12.033             0.494               -4.366              
H              -10.019             1.355               -6.246              
H              -11.479             0.778               -6.695              
H              -12.115             2.612               -5.056              
N              -11.599             -1.851              -4.82               
C              -11.328             -3.271              -4.972              
C              -12.08              -3.8                -6.185              
O              -11.592             -3.709              -7.314              
C              -11.762             -4.021              -3.713              
C              -11.167             -3.457              -2.434              
S              -12.032             -4.021              -0.956              
C              -13.664             -3.342              -1.245              
H              -12.556             -1.466              -4.663              
H              -10.348             -3.39               -5.139              
H              -12.766             -3.985              -3.641              
H              -11.485             -4.986              -3.795              
H              -10.175             -3.716              -2.395              
H              -11.179             -2.433              -2.493              
H              -13.681             -2.872              -2.129              
H              -14.339             -4.081              -1.249              
H              -13.89              -2.691              -0.519              
N              -13.274             -4.336              -5.927              
C              -14.185             -4.798              -6.972              
C              -13.522             -5.76               -7.955              
O              -13.121             -5.356              -9.048              
C              -14.759             -3.597              -7.718              
C              -15.542             -2.651              -6.827              
C              -15.948             -1.389              -7.549              
O              -16.644             -1.491              -8.579              
O              -15.58              -0.286              -7.09               
H              -13.503             -4.397              -4.906              
H              -14.984             -5.255              -6.545              
H              -14.007             -3.094              -8.1                
H              -15.372             -3.935              -8.407              
H              -16.361             -3.108              -6.538              
H              -14.97              -2.393              -6.072              
N              -13.384             -7.019              -7.542              
C              -12.847             -8.07               -8.403              
C              -13.49              -8.062              -9.794              
O              -14.61              -8.532              -9.992              
C              -13.019             -9.442              -7.743              
C              -14.415             -9.696              -7.194              
C              -14.573             -11.098             -6.639              
H              -13.69              -7.187              -6.56               
H              -11.859             -7.9                -8.524              
H              -12.817             -10.151             -8.421              
H              -12.368             -9.517              -6.985              
H              -14.595             -9.041              -6.462              
H              -15.077             -9.567              -7.931              
O              -14.297             -11.349             -5.468              
N              -15.028             -12.017             -7.477              
H              -15.147             -12.984             -7.181              
H              -15.26              -11.743             -8.431              
N              -12.761             -7.506              -10.746             
C              -13.211             -7.443              -12.122             
C              -12.025             -7.347              -13.048             
O              -11.935             -8.055              -14.053             
H              -11.845             -7.122              -10.424             
H              -13.744             -8.267              -12.34              
H              -13.802             -6.639              -12.247             
N              -11.103             -6.468              -12.691             
C              -9.852              -6.33               -13.41              
C              -8.724              -6.769              -12.493             
O              -8.724              -6.44               -11.309             
C              -9.633              -4.89               -13.881             
C              -10.538             -4.477              -15.006             
C              -10.225             -4.802              -16.318             
C              -11.695             -3.763              -14.756             
C              -11.054             -4.422              -17.354             
C              -12.527             -3.381              -15.789             
C              -12.205             -3.709              -17.091             
H              -11.352             -5.891              -11.858             
H              -9.874              -6.976              -14.17              
H              -9.805              -4.292              -13.113             
H              -8.699              -4.814              -14.195             
H              -9.394              -5.316              -16.516             
H              -11.933             -3.521              -13.812             
H              -10.811             -4.669              -18.303             
H              -13.373             -2.858              -15.586             
H              -12.804             -3.432              -17.844             
N              -7.782              -7.517              -13.028             
C              -6.691              -8.048              -12.221             
C              -5.359              -7.446              -12.645             
O              -5.223              -6.958              -13.768             
C              -6.632              -9.58               -12.326             
C              -7.785              -10.346             -11.664             
C              -8.044              -9.823              -10.258             
C              -9.052              -10.276             -12.508             
H              -7.878              -7.693              -14.045             
H              -6.857              -7.807              -11.258             
H              -6.634              -9.818              -13.292             
H              -5.789              -9.882              -11.896             
H              -7.545              -11.316             -11.62              
H              -8.285              -8.853              -10.301             
H              -8.798              -10.335             -9.845              
H              -7.22               -9.937              -9.702              
H              -8.877              -10.679             -13.407             
H              -9.784              -10.783             -12.053             
H              -9.327              -9.32               -12.619             
N              -4.362              -7.465              -11.742             
C              -3.021              -6.955              -12.028             
C              -2.287              -7.824              -13.048             
O              -2.767              -8.896              -13.427             
C              -2.301              -7                  -10.67              
C              -3.367              -7.251              -9.653              
C              -4.462              -7.984              -10.371             
H              -3.062              -5.996              -12.343             
H              -1.614              -7.737              -10.661             
H              -1.831              -6.128              -10.492             
H              -3.004              -7.803              -8.891              
H              -3.704              -6.379              -9.276              
H              -4.313              -8.972              -10.357             
H              -5.36               -7.777              -9.981              
N              -1.13               -7.351              -13.493             
C              -0.313              -8.074              -14.46              
C              0.05                -9.462              -13.932             
O              0.435               -9.619              -12.772             
C              0.954               -7.261              -14.784             
C              1.897               -7.919              -15.786             
C              2.913               -8.817              -15.097             
C              3.768               -9.568              -16.102             
N              4.503               -8.651              -17.015             
H              -0.858              -6.426              -13.095             
H              -0.834              -8.182              -15.314             
H              0.667               -6.378              -15.155             
H              1.454               -7.116              -13.93              
H              1.358               -8.47               -16.425             
H              2.384               -7.206              -16.291             
H              3.508               -8.254              -14.531             
H              2.428               -9.479              -14.534             
H              4.431               -10.138             -15.605             
H              3.176               -10.171             -16.648             
H              4.037               -7.767              -17.043             
H              5.436               -8.527              -16.679             
H              4.527               -9.046              -17.933             
N              -0.064              -10.46              -14.801             
C              0.236               -11.827             -14.42              
C              -0.862              -12.495             -13.608             
O              -0.775              -13.684             -13.318             
H              -0.378              -10.18              -15.749             
H              0.411               -12.38              -15.26              
H              1.103               -11.845             -13.882             
N              -1.897              -11.75              -13.248             
C              -2.976              -12.303             -12.441             
C              -4.203              -12.608             -13.286             
O              -4.716              -11.745             -13.999             
C              -3.342              -11.35              -11.304             
C              -2.315              -11.31              -10.217             
C              -1.207              -10.515             -10.159             
C              -2.301              -12.109             -9.031              
N              -0.505              -10.77              -9.007              
C              -1.158              -11.744             -8.295              
C              -3.148              -13.096             -8.517              
C              -0.836              -12.336             -7.078              
C              -2.829              -13.682             -7.306              
C              -1.682              -13.297             -6.596              
H              -1.872              -10.77              -13.58              
H              -2.651              -13.174             -12.05              
H              -3.425              -10.432             -11.668             
H              -4.195              -11.648             -10.896             
H              -0.943              -9.846              -10.851             
H              0.343               -10.321             -8.73               
H              -3.969              -13.375             -9.011              
H              -0.006              -12.057             -6.582              
H              -3.424              -14.388             -6.935              
H              -1.489              -13.741             -5.72               
N              -4.656              -13.849             -13.219             
C              -5.847              -14.284             -13.927             
C              -6.922              -14.659             -12.91              
O              -6.627              -14.818             -11.729             
C              -5.51               -15.507             -14.783             
C              -6.421              -15.699             -15.98              
C              -6.147              -14.68              -17.059             
O              -5.009              -14.657             -17.575             
O              -7.057              -13.902             -17.4               
H              -4.086              -14.486             -12.616             
H              -6.186              -13.548             -14.513             
H              -4.592              -15.391             -15.12              
H              -5.594              -16.304             -14.211             
H              -6.252              -16.587             -16.357             
H              -7.348              -15.581             -15.685             
N              -8.155              -14.792             -13.36              
C              -9.233              -15.234             -12.49              
C              -10.077             -16.273             -13.215             
O              -10.391             -16.116             -14.395             
C              -10.116             -14.059             -12.005             
C              -10.82              -13.376             -13.163             
C              -11.129             -14.531             -10.973             
H              -8.287              -14.56              -14.363             
H              -8.829              -15.671             -11.684             
H              -9.511              -13.383             -11.587             
H              -11.801             -13.569             -13.121             
H              -10.675             -12.387             -13.109             
H              -10.452             -13.718             -14.029             
H              -12.051             -14.3               -11.285             
H              -11.05              -15.522             -10.862             
H              -10.946             -14.079             -10.1               
N              -10.423             -17.341             -12.517             
C              -11.199             -18.412             -13.115             
C              -12.269             -18.894             -12.139             
O              -12.265             -18.522             -10.967             
C              -10.263             -19.559             -13.519             
C              -10.919             -20.63              -14.375             
C              -9.898              -21.608             -14.929             
N              -10.521             -22.625             -15.775             
C              -10.167             -22.864             -17.037             
N              -9.213              -22.142             -17.609             
N              -10.771             -23.82              -17.731             
H              -10.1               -17.346             -11.531             
H              -11.654             -18.067             -13.942             
H              -9.504              -19.171             -14.034             
H              -9.925              -19.991             -12.687             
H              -11.574             -21.142             -13.823             
H              -11.387             -20.2               -15.144             
H              -9.236              -21.094             -15.467             
H              -9.446              -22.052             -14.16              
H              -11.262             -23.177             -15.381             
H              -8.733              -21.428             -17.106             
H              -8.966              -22.318             -18.571             
H              -11.483             -24.374             -17.29              
H              -10.521             -23.989             -18.68              
N              -13.177             -19.723             -12.621             
C              -14.241             -20.249             -11.787             
C              -13.988             -21.711             -11.468             
O              -13.647             -22.498             -12.35              
C              -15.602             -20.091             -12.468             
C              -16.313             -18.827             -12.099             
H              -13.065             -19.96              -13.627             
H              -14.256             -19.735             -10.923             
H              -15.472             -20.102             -13.465             
H              -16.186             -20.869             -12.213             
N              -16.568             -17.81              -12.992             
C              -16.832             -18.427             -10.918             
C              -17.213             -16.838             -12.374             
N              -17.388             -17.188             -11.113             
H              -16.305             -17.811             -13.957             
H              -16.815             -18.937             -10.059             
H              -17.516             -15.983             -12.788             
N              -14.148             -22.065             -10.208             
C              -13.977             -23.439             -9.782              
C              -15.286             -24.185             -9.984              
O              -16.345             -23.56              -10.009             
C              -13.549             -23.491             -8.323              
H              -14.402             -21.29              -9.562              
H              -13.272             -23.872             -10.345             
H              -14.153             -22.911             -7.776              
H              -13.604             -24.433             -7.992              
H              -12.608             -23.164             -8.239              
N              -15.245             -25.519             -10.135             
C              -16.456             -26.332             -10.316             
C              -17.458             -26.135             -9.18               
O              -18.656             -26.366             -9.343              
C              -15.927             -27.769             -10.323             
C              -14.506             -27.642             -10.746             
C              -14.024             -26.348             -10.157             
H              -16.886             -26.134             -11.21              
H              -15.997             -28.174             -9.407              
H              -16.448             -28.333             -10.968             
H              -13.963             -28.417             -10.402             
H              -14.435             -27.627             -11.75              
H              -13.671             -26.474             -9.231              
H              -13.323             -25.922             -10.728             
N              -16.958             -25.706             -8.025              
H              -15.924             -25.582             -8.02               
H              -17.5436            -25.518             -7.2208             
