322
1.xyz
C              8.075               -2.051              -5.474              
O              7.923               -2.022              -4.254              
N              7.525               -1.165              -6.287              
C              6.678               -0.101              -5.782              
C              5.346               -0.667              -5.297              
O              4.537               -1.139              -6.096              
C              6.444               0.931               -6.878              
O              7.655               1.243               -7.544              
H              7.747               -1.295              -7.293              
H              7.136               0.322               -4.994              
H              5.798               0.561               -7.538              
H              6.078               1.761               -6.467              
H              8.415               1.184               -6.898              
N              5.142               -0.652              -3.99               
C              3.888               -1.092              -3.416              
C              3.155               0.094               -2.802              
O              3.677               1.214               -2.771              
C              4.111               -2.195              -2.363              
C              4.711               -1.719              -1.055              
C              3.899               -1.226              -0.041              
C              6.079               -1.768              -0.824              
C              4.427               -0.795              1.159               
C              6.62                -1.34               0.376               
C              5.79                -0.855              1.364               
O              6.325               -0.418              2.556               
H              5.944               -0.304              -3.426              
H              3.313               -1.467              -4.149              
H              3.226               -2.617              -2.167              
H              4.725               -2.878              -2.758              
H              2.905               -1.182              -0.186              
H              6.685               -2.12               -1.538              
H              3.824               -0.441              1.879               
H              7.61                -1.382              0.525               
H              6.468               0.569               2.508               
N              1.951               -0.161              -2.32               
C              1.144               0.861               -1.686              
C              0.696               0.394               -0.313              
O              0.372               -0.777              -0.122              
C              -0.077              1.183               -2.545              
C              0.255               1.77                -3.898              
C              0.536               0.961               -4.994              
C              0.284               3.142               -4.077              
C              0.839               1.509               -6.225              
C              0.584               3.696               -5.303              
C              0.861               2.876               -6.374              
O              1.163               3.427               -7.599              
H              1.637               -1.15               -2.435              
H              1.707               1.686               -1.568              
H              -0.591              0.339               -2.689              
H              -0.643              1.841               -2.051              
H              0.519               -0.036              -4.888              
H              0.082               3.743               -3.301              
H              1.041               0.911               -7.006              
H              0.601               4.693               -5.416              
H              1.906               4.084               -7.488              
N              0.688               1.298               0.646               
C              0.203               0.972               1.976               
C              -0.928              1.912               2.385               
O              -0.796              3.138               2.316               
C              1.335               0.994               3.033               
C              2.062               2.328               3.035               
C              0.781               0.686               4.419               
H              1.046               2.233               0.378               
H              -0.166              0.036               1.958               
H              1.999               0.297               2.774               
H              1.397               3.072               2.962               
H              2.578               2.427               3.886               
H              2.691               2.368               2.259               
H              1.157               -0.183              4.738               
H              1.042               1.418               5.048               
H              -0.215              0.624               4.369               
N              -2.043              1.312               2.783               
C              -3.215              2.051               3.225               
C              -3.138              2.308               4.724               
O              -2.998              1.374               5.512               
C              -4.492              1.269               2.903               
C              -5.714              1.91                3.521               
O              -6.269              2.846               2.911               
O              -6.104              1.504               4.632               
H              -2.005              0.267               2.751               
H              -3.193              2.947               2.772               
H              -4.6                1.253               1.919               
H              -4.39               0.354               3.265               
N              -3.183              3.575               5.112               
C              -3.129              3.95                6.522               
C              -4.498              3.898               7.197               
O              -4.604              4.137               8.401               
C              -2.516              5.338               6.692               
C              -1.04               5.359               6.438               
H              -3.259              4.267               4.34                
H              -2.517              3.3                 7.001               
H              -2.955              5.972               6.051               
H              -2.679              5.656               7.629               
N              -0.13               4.745               7.27                
C              -0.313              5.884               5.421               
C              1.082               4.893               6.781               
N              1.003               5.579               5.661               
H              -0.361              4.261               8.116               
H              -0.669              6.397               4.644               
H              1.924               4.544               7.192               
N              -5.544              3.598               6.436               
C              -6.893              3.569               6.997               
C              -7.078              2.343               7.881               
O              -7.457              2.463               9.047               
C              -7.964              3.611               5.899               
C              -8.01               4.943               5.172               
H              -5.329              3.394               5.448               
H              -6.986              4.376               7.588               
H              -7.762              2.894               5.237               
H              -8.851              3.448               6.322               
O              -8.699              5.871               5.597               
N              -7.297              5.041               4.061               
H              -6.767              4.252               3.738               
H              -7.284              5.894               3.542               
N              -6.794              1.164               7.341               
C              -6.793              -0.043              8.148               
C              -5.378              -0.302              8.657               
O              -5.177              -0.996              9.658               
C              -7.323              -1.227              7.333               
O              -6.796              -1.216              6.019               
H              -6.581              1.183               6.329               
H              -7.381              0.107               8.943               
H              -7.054              -2.072              7.785               
H              -8.315              -1.163              7.286               
H              -6.605              -0.275              5.744               
N              -4.421              0.332               7.973               
C              -2.991              0.203               8.256               
C              -2.499              -1.138              7.75                
O              -2.301              -2.076              8.521               
C              -2.678              0.383               9.741               
C              -3.152              1.714               10.296              
C              -2.987              1.793               11.804              
C              -3.717              0.663               12.519              
N              -5.146              0.567               12.11               
H              -4.79               0.943               7.199               
H              -2.501              0.933               7.778               
H              -3.129              -0.347              10.245              
H              -1.691              0.325               9.861               
H              -2.621              2.453               9.874               
H              -4.121              1.838               10.07               
H              -2.017              1.733               12.027              
H              -3.357              2.661               12.126              
H              -3.255              -0.205              12.309              
H              -3.668              0.821               13.51               
H              -5.586              -0.175              12.615              
H              -5.607              1.43                12.313              
H              -5.198              0.382               11.129              
N              -2.312              -1.206              6.443               
C              -2.059              -2.453              5.755               
C              -1.413              -2.2                4.399               
O              -1.827              -1.305              3.665               
C              -3.372              -3.227              5.538               
O              -4.479              -2.318              5.475               
C              -3.592              -4.246              6.638               
H              -2.363              -0.281              5.952               
H              -1.423              -3.006              6.307               
H              -3.318              -3.724              4.646               
H              -4.575              -4.365              6.804               
H              -3.197              -5.129              6.372               
H              -3.154              -3.935              7.486               
H              -4.153              -1.368              5.517               
N              -0.4                -2.98               4.077               
C              0.238               -2.899              2.777               
C              -0.515              -3.759              1.769               
O              -0.722              -4.951              1.986               
C              1.713               -3.336              2.869               
O              2.488               -2.265              3.406               
C              2.276               -3.75               1.519               
H              -0.104              -3.645              4.821               
H              0.209               -1.946              2.461               
H              1.779               -4.131              3.504               
H              3.254               -3.532              1.476               
H              2.154               -4.737              1.387               
H              1.799               -3.26               0.786               
H              2.332               -1.42               2.882               
N              -0.936              -3.143              0.681               
C              -1.694              -3.835              -0.336              
C              -1.17               -3.454              -1.718              
O              -1.251              -2.298              -2.139              
C              -3.215              -3.532              -0.201              
O              -3.972              -4.238              -1.194              
C              -3.503              -2.038              -0.301              
H              -0.679              -2.135              0.622               
H              -1.572              -4.824              -0.218              
H              -3.526              -3.846              0.723               
H              -2.663              -1.519              -0.131              
H              -3.846              -1.82               -1.217              
H              -4.192              -1.78               0.379               
H              -4.392              -3.59               -1.838              
N              -0.571              -4.417              -2.404              
C              -0.037              -4.163              -3.728              
C              -1.172              -4.198              -4.744              
O              -1.574              -5.259              -5.231              
C              1.06                -5.195              -4.048              
C              1.565               -5.198              -5.461              
C              1.967               -6.298              -6.156              
C              1.724               -4.082              -6.35               
N              2.369               -5.946              -7.415              
C              2.225               -4.592              -7.567              
C              1.49                -2.707              -6.245              
C              2.495               -3.774              -8.66               
C              1.759               -1.898              -7.331              
C              2.256               -2.434              -8.525              
H              -0.521              -5.333              -1.926              
H              0.346               -3.238              -3.737              
H              1.846               -5.019              -3.453              
H              0.701               -6.11               -3.86               
H              1.969               -7.234              -5.797              
H              2.713               -6.572              -8.116              
H              1.133               -2.313              -5.399              
H              2.854               -4.17               -9.513              
H              1.597               -0.918              -7.261              
H              2.437               -1.815              -9.291              
N              -1.698              -3.019              -5.024              
C              -2.764              -2.841              -5.985              
C              -2.47               -1.629              -6.855              
O              -1.777              -0.702              -6.428              
C              -4.102              -2.674              -5.259              
O              -5.181              -2.617              -6.175              
H              -1.274              -2.221              -4.487              
H              -2.792              -3.647              -6.581              
H              -4.234              -3.45               -4.649              
H              -4.077              -1.827              -4.734              
H              -5.002              -1.909              -6.857              
N              -2.973              -1.637              -8.076              
C              -2.883              -0.464              -8.925              
C              -4.188              0.32                -8.86               
O              -5.239              -0.186              -9.255              
C              -2.539              -0.85               -10.366             
C              -1.094              -1.303              -10.559             
C              -0.133              -0.136              -10.79              
C              -0.068              0.822               -9.605              
N              0.902               1.929               -9.835              
H              -3.422              -2.524              -8.364              
H              -2.139              0.124               -8.597              
H              -3.139              -1.597              -10.641             
H              -2.698              -0.056              -10.948             
H              -0.798              -1.805              -9.741              
H              -1.048              -1.919              -11.351             
H              0.782               -0.503              -10.951             
H              -0.436              0.374               -11.594             
H              -0.981              1.21                -9.452              
H              0.206               0.308               -8.788              
H              1.52                1.995               -9.053              
H              1.428               1.741               -10.663             
H              0.404               2.789               -9.942              
N              -4.13               1.553               -8.319              
C              -5.306              2.418               -8.159              
C              -6.092              2.599               -9.456              
O              -5.519              2.888               -10.513             
C              -4.706              3.751               -7.708              
C              -3.423              3.383               -7.047              
C              -2.901              2.198               -7.808              
H              -5.909              2.064               -7.423              
H              -4.546              4.351               -8.497              
H              -5.322              4.217               -7.067              
H              -2.771              4.15                -7.087              
H              -3.578              3.148               -6.08               
H              -2.314              2.477               -8.567              
H              -2.399              1.569               -7.213              
N              -7.401              2.43                -9.369              
C              -8.272              2.553               -10.524             
C              -8.613              4.012               -10.803             
O              -8.511              4.866               -9.922              
C              -9.569              1.753               -10.308             
O              -9.919              1.756               -8.915              
C              -9.409              0.323               -10.798             
H              -7.748              2.204               -8.412              
H              -7.794              2.182               -11.331             
H              -10.325             2.204               -10.825             
H              -8.986              0.32                -11.707             
H              -8.827              -0.192              -10.164             
H              -10.307             -0.121              -10.853             
H              -9.209              1.29                -8.377              
N              -9.009              4.291               -12.035             
C              -9.38               5.639               -12.428             
C              -10.869             5.714               -12.72              
O              -11.385             4.964               -13.547             
C              -8.585              6.082               -13.659             
C              -7.085              6.153               -13.418             
S              -6.165              6.595               -14.906             
C              -4.48               6.583               -14.291             
H              -9.031              3.478               -12.682             
H              -9.182              6.258               -11.661             
H              -8.757              5.434               -14.409             
H              -8.905              6.992               -13.944             
H              -6.908              6.829               -12.668             
H              -6.77               5.248               -13.053             
H              -4.468              6.232               -13.354             
H              -3.916              5.996               -14.873             
H              -4.113              7.514               -14.302             
N              -11.562             6.603               -12.026             
C              -12.981             6.809               -12.262             
C              -13.213             8.198               -12.819             
O              -13.074             9.192               -12.104             
C              -13.783             6.632               -10.979             
C              -13.601             5.273               -10.33              
C              -14.527             5.067               -9.158              
H              -11.016             7.128               -11.315             
H              -13.282             6.144               -12.952             
H              -13.499             7.332               -10.321             
H              -14.756             6.75                -11.187             
H              -13.784             4.565               -11.012             
H              -12.656             5.194               -10.012             
O              -14.297             5.685               -8.103              
N              -15.496             4.293               -9.289              
H              -16.173             4.084               -8.53               
H              -15.668             3.811               -10.199             
N              -13.559             8.263               -14.087             
C              -13.731             9.529               -14.768             
C              -14.894             9.441               -15.739             
O              -15.837             10.253              -15.618             
C              -12.448             9.923               -15.505             
C              -12.581             11.253              -16.214             
O              -12.623             12.293              -15.527             
O              -12.647             11.261              -17.456             
O              -14.887             8.528               -16.588             
H              -13.697             7.339               -14.552             
H              -13.977             10.214              -14.075             
H              -11.719             9.987               -14.836             
H              -12.251             9.219               -16.175             
H              8.68295             -2.79366            -5.92979            
