175
5.xyz
C              15.159              -15.295             -20.028             
C              15.982              -15.574             -21.281             
O              17.101              -15.08              -21.406             
C              15.936              -15.697             -18.773             
C              15.39               -15.11              -17.465             
C              15.972              -15.886             -16.297             
C              15.742              -13.607             -17.355             
H              15.016              -14.289             -19.961             
H              15.899              -16.683             -18.692             
H              16.867              -15.38              -18.874             
H              14.401              -15.194             -17.463             
H              16.97               -15.813             -16.309             
H              15.622              -15.512             -15.437             
H              15.71               -16.849             -16.369             
H              15.336              -13.124             -18.126             
H              15.376              -13.253             -16.498             
H              16.733              -13.507             -17.372             
N              15.432              -16.354             -22.203             
C              16.142              -16.659             -23.443             
C              16.413              -15.359             -24.197             
O              15.502              -14.592             -24.5               
C              15.314              -17.606             -24.305             
O              15.933              -17.77              -25.568             
H              14.492              -16.714             -21.976             
H              17.023              -17.067             -23.206             
H              15.258              -18.487             -23.854             
H              14.411              -17.217             -24.435             
H              16.919              -17.633             -25.477             
N              17.695              -15.14              -24.465             
C              18.257              -13.966             -25.149             
C              18.105              -12.649             -24.39              
O              18.296              -11.571             -24.953             
C              17.722              -13.779             -26.597             
O              16.348              -13.382             -26.579             
C              17.888              -15.061             -27.384             
H              18.329              -15.933             -24.124             
H              19.253              -14.135             -25.296             
H              18.266              -13.039             -27.048             
H              18.843              -15.367             -27.345             
H              17.301              -15.779             -27                 
H              17.633              -14.911             -28.343             
H              15.875              -13.792             -25.792             
N              17.764              -12.717             -23.105             
C              17.653              -11.487             -22.343             
C              19.029              -10.825             -22.201             
O              20.067              -11.507             -22.163             
C              17.032              -11.751             -20.965             
H              17.6                -13.653             -22.734             
H              17.046              -10.851             -22.829             
H              16.57               -12.635             -20.977             
H              17.753              -11.757             -20.276             
H              16.374              -11.03              -20.758             
N              19.01               -9.497              -22.156             
C              20.215              -8.664              -22.059             
C              20.27               -7.961              -20.72              
O              19.263              -7.874              -20.001             
C              20.199              -7.597              -23.153             
C              19.853              -8.139              -24.528             
C              20.93               -9.067              -25.015             
C              21.937              -8.327              -25.875             
N              21.399              -7.931              -27.214             
H              18.044              -9.082              -22.196             
H              21.022              -9.257              -22.153             
H              19.522              -6.908              -22.907             
H              21.105              -7.182              -23.196             
H              18.989              -8.636              -24.471             
H              19.761              -7.375              -25.164             
H              21.409              -9.455              -24.233             
H              20.52               -9.79               -25.562             
H              22.237              -7.495              -25.387             
H              22.747              -8.915              -26.012             
H              21.425              -8.721              -27.824             
H              20.457              -7.617              -27.109             
H              21.961              -7.196              -27.588             
N              21.437              -7.429              -20.382             
C              21.608              -6.72               -19.132             
C              20.632              -5.566              -19.078             
O              20.512              -4.793              -20.03              
C              23.037              -6.192              -19.026             
C              23.26               -5.342              -17.799             
C              24.724              -4.916              -17.693             
C              25.015              -4.261              -16.37              
N              26.419              -3.747              -16.372             
H              22.196              -7.565              -21.078             
H              21.416              -7.344              -18.371             
H              23.654              -6.972              -18.99              
H              23.225              -5.642              -19.834             
H              22.694              -4.522              -17.854             
H              23.021              -5.864              -16.983             
H              25.295              -5.727              -17.789             
H              24.919              -4.271              -18.426             
H              24.392              -3.499              -16.231             
H              24.916              -4.927              -15.639             
H              26.928              -4.187              -17.109             
H              26.406              -2.759              -16.513             
H              26.847              -3.957              -15.494             
N              19.947              -5.438              -17.941             
C              18.98               -4.369              -17.779             
C              17.562              -4.767              -18.14              
O              16.626              -4.029              -17.818             
H              20.162              -6.142              -17.219             
H              18.999              -4.042              -16.812             
H              19.259              -3.573              -18.354             
N              17.386              -5.908              -18.79              
C              16.043              -6.338              -19.159             
C              15.199              -6.687              -17.946             
O              15.699              -7.227              -16.943             
C              16.048              -7.599              -20.048             
C              16.502              -7.343              -21.468             
O              16.734              -6.177              -21.809             
O              16.6                -8.326              -22.225             
H              18.24               -6.439              -19.001             
H              15.595              -5.555              -19.618             
H              16.662              -8.262              -19.625             
H              15.119              -7.959              -20.064             
N              13.919              -6.371              -18.063             
C              12.928              -6.707              -17.044             
C              12.035              -7.733              -17.737             
O              11.554              -7.499              -18.846             
C              12.082              -5.476              -16.647             
C              12.968              -4.284              -16.276             
C              11.122              -5.862              -15.521             
C              13.916              -4.545              -15.107             
H              13.676              -5.862              -18.944             
H              13.408              -7.187              -16.337             
H              11.53               -5.218              -17.437             
H              13.511              -4.029              -17.075             
H              12.376              -3.514              -16.035             
H              10.528              -5.088              -15.314             
H              10.569              -6.64               -15.811             
H              11.647              -6.108              -14.709             
H              14.521              -5.301              -15.343             
H              14.451              -3.722              -14.934             
H              13.379              -4.777              -14.3               
N              11.8                -8.861              -17.09              
C              10.989              -9.907              -17.686             
C              9.779               -10.188             -16.813             
O              9.896               -10.303             -15.601             
C              11.84               -11.18              -17.865             
C              11.026              -12.317             -18.406             
C              12.989              -10.878             -18.815             
H              12.231              -8.931              -16.151             
H              10.66               -9.582              -18.578             
H              12.168              -11.448             -16.958             
H              10.913              -13.025             -17.704             
H              10.119              -11.99              -18.685             
H              11.484              -12.721             -19.203             
H              13.518              -11.712             -18.969             
H              12.621              -10.548             -19.684             
H              13.576              -10.177             -18.411             
N              8.621               -10.3               -17.435             
C              7.41                -10.568             -16.692             
C              6.302               -9.635              -17.14              
O              6.496               -8.781              -18.016             
H              8.656               -10.183             -18.462             
H              7.123               -11.521             -16.841             
H              7.578               -10.437             -15.709             
N              5.139               -9.732              -16.512             
C              4.844               -10.658             -15.424             
C              4.751               -12.098             -15.886             
O              4.219               -12.379             -16.95              
C              3.516               -10.144             -14.892             
C              2.82                -9.684              -16.143             
C              3.938               -8.963              -16.899             
H              5.531               -10.563             -14.68              
H              3                   -10.871             -14.45              
H              3.649               -9.385              -14.264             
H              2.489               -10.456             -16.667             
H              2.086               -9.056              -15.927             
H              3.789               -9.009              -17.88              
H              4.013               -8.016              -16.604             
N              5.213               -13.003             -15.032             
H              5.59                -12.613             -14.143             
H              14.2113             -15.7689            -20.0244            
H              5.19704             -14.0001            -15.2367            
