293
0.xyz
N              0.751               -3.334              1.656               
C              2.229               -3.425              1.502               
C              2.876               -2.45               2.455               
O              2.233               -1.501              2.927               
H              0.525               -3.28               2.626               
H              2.515               -4.355              1.712               
H              2.466               -3.199              0.562               
H              0.422               -2.517              1.188               
H              0.329               -4.144              1.256               
N              4.147               -2.66               2.747               
C              4.814               -1.794              3.713               
C              5.019               -0.396              3.141               
O              5.18                -0.249              1.924               
C              6.169               -2.49               3.918               
C              6.343               -3.376              2.723               
C              4.974               -3.827              2.385               
H              4.297               -1.753              4.577               
H              6.909               -1.811              3.972               
H              6.164               -3.028              4.766               
H              6.759               -2.86               1.968               
H              6.942               -4.15               2.952               
H              4.873               -4.032              1.411               
H              4.696               -4.627              2.921               
N              5.009               0.602               4.034               
C              5.272               1.986               3.667               
C              6.75                2.238               3.859               
O              7.321               1.852               4.888               
C              4.453               2.927               4.565               
O              3.058               2.646               4.363               
C              4.71                4.374               4.21                
H              4.797               0.297               5.01                
H              5.049               2.108               2.704               
H              4.677               2.734               5.537               
H              5.646               4.483               3.863               
H              4.065               4.675               3.502               
H              4.595               4.954               5.022               
H              2.898               2.345               3.418               
N              7.358               2.864               2.855               
C              8.763               3.245               2.892               
C              8.924               4.753               2.745               
O              8.16                5.418               2.031               
C              9.564               2.533               1.803               
C              10.013              1.155               2.231               
C              11.331              0.931               2.676               
C              9.113               0.09                2.21                
C              11.741              -0.326              3.089               
C              9.515               -1.19               2.616               
C              10.828              -1.38               3.056               
O              11.231              -2.644              3.461               
H              6.736               3.059               2.034               
H              9.142               2.976               3.786               
H              8.989               2.44                1.002               
H              10.369              3.074               1.602               
H              11.975              1.695               2.691               
H              8.18                0.235               1.907               
H              12.672              -0.48               3.407               
H              8.878               -1.949              2.591               
H              10.852              -2.829              4.364               
N              9.915               5.278               3.464               
C              10.351              6.677               3.289               
C              11.838              6.683               2.938               
O              12.52               5.668               3.108               
C              10.114              7.527               4.573               
C              8.614               7.685               4.842               
C              10.815              6.906               5.782               
H              10.35               4.632               4.149               
H              9.848               7.061               2.521               
H              10.476              8.434               4.399               
H              8.482               8.059               5.758               
H              8.222               8.306               4.166               
H              8.172               6.792               4.776               
H              11.238              7.632               6.322               
H              10.141              6.419               6.335               
H              11.515              6.27                5.462               
N              12.338              7.827               2.449               
C              13.746              7.939               2.074               
C              14.339              9.093               2.856               
O              13.692              10.12               3.005               
C              13.896              8.178               0.562               
C              15.353              8.192               0.12                
C              15.475              8.075               -1.369              
H              11.656              8.598               2.365               
H              14.207              7.104               2.356               
H              13.429              7.448               0.077               
H              13.492              9.059               0.338               
H              15.764              9.05                0.416               
H              15.82               7.423               0.549               
O              14.59               8.545               -2.102              
N              16.556              7.463               -1.84               
H              16.7                7.334               -2.838              
H              17.252              7.118               -1.176              
N              15.555              8.909               3.367               
C              16.226              9.953               4.153               
C              16.639              11.152              3.287               
O              17.255              10.985              2.251               
C              17.442              9.37                4.815               
H              15.98               7.986               3.168               
H              15.589              10.279              4.866               
H              17.302              8.393               4.992               
H              18.243              9.481               4.222               
H              17.616              9.836               5.686               
N              16.312              12.353              3.763               
C              16.733              13.612              3.153               
C              18.033              14.147              3.788               
O              18.777              14.897              3.149               
C              15.639              14.648              3.422               
C              14.232              14.516              2.863               
C              13.329              15.503              3.573               
C              14.307              14.826              1.395               
H              15.715              12.317              4.63                
H              16.908              13.455              2.173               
H              15.548              14.728              4.441               
H              16.001              15.554              3.107               
H              13.903              13.591              3.02                
H              13.664              16.435              3.425               
H              12.397              15.427              3.214               
H              13.321              15.308              4.555               
H              14.926              14.181              0.938               
H              13.396              14.751              0.98                
H              14.651              15.759              1.257               
N              18.273              13.774              5.055               
C              19.431              14.214              5.85                
C              20.022              13.033              6.59                
O              19.305              12.07               6.929               
C              19.027              15.287              6.9                 
C              18.474              16.543              6.288               
C              17.101              16.718              6.145               
C              19.345              17.57               5.88                
C              16.593              17.911              5.576               
C              18.838              18.735              5.298               
C              17.46               18.912              5.175               
H              17.542              13.121              5.444               
H              20.121              14.532              5.197               
H              18.334              14.887              7.473               
H              19.839              15.518              7.408               
H              16.468              16.02               6.437               
H              20.323              17.463              6.009               
H              15.599              18.01               5.471               
H              19.476              19.445              4.967               
H              17.099              19.765              4.796               
N              21.328              13.104              6.854               
C              21.982              12.135              7.732               
C              21.509              12.35               9.169               
O              21.437              13.517              9.648               
C              23.484              12.368              7.68                
C              24.036              12.259              6.273               
O              23.755              11.248              5.62                
O              24.746              13.208              5.845               
H              21.825              13.887              6.393               
H              21.672              11.225              7.454               
H              23.669              13.281              8.024               
H              23.925              11.685              8.249               
N              21.272              11.24               9.879               
C              20.777              11.275              11.259              
C              21.641              10.376              12.138              
O              21.715              9.16                11.914              
C              19.286              10.84               11.309              
C              18.733              10.765              12.714              
C              18.431              9.526               13.291              
C              18.519              11.931              13.469              
C              17.924              9.436               14.603              
C              18.035              11.844              14.807              
C              17.745              10.603              15.362              
H              21.469              10.353              9.368               
H              20.902              12.211              11.589              
H              18.768              11.509              10.809              
H              19.227              9.945               10.907              
H              18.575              8.69                12.774              
H              18.703              12.82               13.079              
H              17.694              8.54                14.982              
H              17.909              12.694              15.332              
H              17.41               10.532              16.299              
N              22.288              10.991              13.129              
C              23.154              10.294              14.076              
C              22.38               10.108              15.37               
O              22.025              11.097              15.992              
C              24.403              11.162              14.346              
C              25.453              10.441              15.16               
O              25.461              9.188               15.16               
O              26.3                11.107              15.78               
H              22.12               12.026              13.169              
H              23.33               9.387               13.704              
H              24.789              11.413              13.466              
H              24.105              11.97               14.84               
N              22.121              8.846               15.787              
C              21.398              8.577               17.046              
C              22.092              9.218               18.233              
O              23.325              9.173               18.332              
C              21.495              7.066               17.201              
C              21.642              6.555               15.88               
C              22.462              7.596               15.094              
H              20.441              8.888               16.973              
H              22.284              6.833               17.799              
H              20.662              6.715               17.665              
H              22.133              5.667               15.854              
H              20.753              6.419               15.41               
H              23.431              7.399               15.163              
H              22.175              7.62                14.144              
N              21.289              9.801               19.114              
C              21.766              10.44               20.342              
C              21.242              9.734               21.579              
O              21.779              9.914               22.676              
C              21.324              11.894              20.388              
C              21.883              12.741              19.28               
C              21.765              14.223              19.572              
H              20.271              9.766               18.856              
H              22.773              10.376              20.35               
H              20.321              11.926              20.337              
H              21.613              12.29               21.267              
H              22.851              12.521              19.155              
H              21.386              12.545              18.434              
O              21.631              14.624              20.73               
N              21.815              15.044              18.532              
H              21.729              16.049              18.65               
H              21.944              14.648              17.599              
N              20.176              8.954               21.42               
C              19.622              8.214               22.55               
C              19.468              6.753               22.198              
O              19.492              6.373               21.015              
C              18.278              8.785               23                  
C              18.233              10.292              23.234              
C              19.198              10.784              24.319              
O              19.579              11.985              24.254              
O              19.576              9.983               25.227              
H              19.791              8.92                20.465              
H              20.231              8.311               23.345              
H              17.611              8.576               22.296              
H              18.034              8.346               23.856              
H              18.484              10.744              22.395              
H              17.322              10.535              23.523              
N              19.339              5.933               23.241              
C              19.02               4.528               23.103              
C              17.747              4.429               22.284              
O              16.852              5.267               22.427              
C              18.753              3.901               24.486              
C              20.008              3.698               25.309              
O              19.845              3.399               26.528              
O              21.145              3.816               24.77               
H              19.49               6.4                 24.168              
H              19.746              4.105               22.568              
H              18.138              4.51                24.979              
H              18.317              3.019               24.338              
N              17.706              3.43                21.405              
C              16.504              3.106               20.652              
C              16.228              3.979               19.429              
O              15.188              3.81                18.793              
H              18.603              2.906               21.306              
H              16.551              2.124               20.351              
H              15.692              3.154               21.28               
N              17.112              4.936               19.137              
C              16.992              5.74                17.905              
C              17.69               5.019               16.775              
O              18.721              4.353               16.991              
C              17.586              7.141               18.064              
C              16.833              7.997               19.061              
C              17.428              9.35                19.319              
O              18.498              9.698               18.769              
O              16.788              10.1                20.093              
H              17.868              5.064               19.827              
H              16.025              5.867               17.688              
H              18.506              7.039               18.389              
H              17.541              7.585               17.191              
H              15.911              8.133               18.713              
H              16.805              7.509               19.928              
N              17.12               5.149               15.576              
C              17.626              4.518               14.36               
C              18.479              5.505               13.555              
O              17.961              6.519               13.103              
C              16.445              4.112               13.484              
C              16.768              3.518               12.104              
C              17.385              2.124               12.25               
C              15.486              3.492               11.293              
H              16.259              5.756               15.582              
H              18.206              3.74                14.618              
H              15.914              3.425               13.981              
H              15.881              4.923               13.329              
H              17.415              4.117               11.637              
H              16.738              1.525               12.719              
H              17.587              1.756               11.344              
H              18.228              2.191               12.781              
H              15.132              4.423               11.193              
H              15.669              3.108               10.386              
H              14.803              2.927               11.76               
N              19.749              5.178               13.33               
C              20.602              6.057               12.503              
C              20.456              5.736               11.029              
O              20.136              4.604               10.639              
H              20.073              4.307               13.757              
H              20.341              7.015               12.671              
H              21.561              5.937               12.784              
N              20.702              6.731               10.185              
H              20.907              7.642               10.624              
H              20.6819             6.5728              9.19137             
