393
0.xyz
N              -15.115             1.671               12.771              
C              -14.695             0.639               11.775              
C              -13.219             0.343               11.922              
O              -12.75              -0.694              11.512              
C              -15.027             1.095               10.34               
C              -16.484             1.459               9.99                
C              -16.648             1.505               8.482               
C              -17.546             0.495               10.579              
H              -16.098             1.815               12.695              
H              -15.22              -0.193              11.962              
H              -14.466             1.907               10.143              
H              -14.75              0.357               9.716               
H              -16.691             2.351               10.379              
H              -16.427             0.61                8.092               
H              -17.594             1.741               8.253               
H              -16.032             2.194               8.097               
H              -17.469             0.502               11.572              
H              -18.45              0.807               10.302              
H              -17.377             -0.421              10.228              
H              -14.889             1.35                13.687              
H              -14.632             2.521               12.581              
N              -12.491             1.285               12.504              
C              -11.075             1.148               12.758              
C              -10.292             1.31                11.486              
O              -9.222              0.735               11.353              
H              -13.039             2.145               12.766              
H              -10.783             1.845               13.426              
H              -10.89              0.239               13.156              
N              -10.809             2.094               10.541              
C              -10.198             2.151               9.223               
C              -8.78               2.722               9.308               
O              -8.474              3.505               10.194              
C              -11.047             2.967               8.25                
O              -11.154             4.297               8.694               
H              -11.642             2.63                10.819              
H              -10.128             1.214               8.866               
H              -10.612             2.952               7.357               
H              -11.954             2.562               8.202               
H              -10.686             4.907               8.053               
N              -7.934              2.311               8.374               
C              -6.573              2.821               8.307               
C              -6.532              3.917               7.246               
O              -6.976              3.704               6.12                
C              -5.579              1.689               7.99                
C              -4.111              2.219               7.954               
C              -5.775              0.517               9.01                
H              -8.318              1.611               7.711               
H              -6.347              3.234               9.184               
H              -5.771              1.352               7.075               
H              -4.136              3.21                7.887               
H              -3.655              1.939               8.791               
H              -3.655              1.828               7.162               
H              -4.88               0.152               9.235               
H              -6.22               0.883               9.818               
H              -6.341              -0.175              8.579               
N              -5.983              5.081               7.595               
C              -5.908              6.159               6.651               
C              -4.499              6.365               6.141               
O              -4.324              6.863               5.033               
C              -6.516              7.436               7.242               
C              -8.035              7.236               7.449               
C              -8.695              8.424               8.06                
N              -8.643              9.539               7.133               
C              -9.471              9.732               6.117               
N              -10.463             8.891               5.887               
N              -9.294              10.78               5.334               
H              -5.635              5.123               8.567               
H              -6.508              5.951               5.86                
H              -6.116              7.601               8.114               
H              -6.396              8.165               6.608               
H              -8.451              7.049               6.557               
H              -8.168              6.442               8.046               
H              -9.641              8.202               8.252               
H              -8.212              8.667               8.891               
H              -7.911              10.231              7.273               
H              -10.622             8.106               6.484               
H              -11.073             9.04                5.099               
H              -8.557              11.433              5.515               
H              -9.902              10.93               4.548               
N              -3.503              5.95                6.937               
C              -2.102              6.032               6.553               
C              -1.386              4.799               7.059               
O              -1.682              4.294               8.148               
C              -1.443              7.257               7.155               
C              -2.034              8.536               6.666               
C              -2.997              9.286               7.263               
C              -1.721              9.175               5.439               
N              -3.307              10.363              6.473               
C              -2.507              10.338              5.363               
C              -0.801              8.907               4.418               
C              -2.458              11.197              4.27                
C              -0.738              9.785               3.331               
C              -1.565              10.908              3.272               
H              -3.826              5.565               7.853               
H              -2.057              6.024               5.555               
H              -1.556              7.237               8.141               
H              -0.481              7.263               6.911               
H              -3.42               9.086               8.146               
H              -4.001              11.053              6.672               
H              -0.202              8.116               4.455               
H              -3.064              11.999              4.227               
H              -0.095              9.596               2.6                 
H              -1.498              11.515              2.476               
N              -0.418              4.338               6.283               
C              0.361               3.143               6.659               
C              1.8                 3.274               6.219               
O              2.057               3.757               5.125               
C              -0.235              1.891               6.021               
H              -0.253              4.868               5.412               
H              0.328               3.05                7.662               
H              0.491               1.225               5.855               
H              -0.915              1.496               6.637               
H              -0.67               2.134               5.155               
N              2.721               2.785               7.042               
C              4.151               2.844               6.721               
C              4.601               1.533               6.072               
O              4.332               0.463               6.628               
C              4.948               3.049               8.01                
C              6.403               3.354               7.81                
C              6.715               4.8                 8.17                
N              8.061               5.165               7.767               
C              9.124               5.26                8.56                
N              9.048               5.005               9.857               
N              10.288              5.602               8.026               
H              2.351               2.365               7.915               
H              4.306               3.592               6.072               
H              4.53                3.808               8.511               
H              4.871               2.212               8.555               
H              6.959               2.767               8.394               
H              6.653               3.218               6.854               
H              6.057               5.381               7.703               
H              6.624               4.896               9.156               
H              8.211               5.371               6.775               
H              8.18                4.713               10.261              
H              9.858               5.102               10.437              
H              10.371              5.766               7.044               
H              11.098              5.697               8.613               
N              5.284               1.595               4.92                
C              5.787               0.381               4.272               
C              6.823               -0.32               5.135               
O              7.791               0.291               5.543               
C              6.382               0.697               2.891               
H              5.419               2.546               4.544               
H              5.011               -0.247              4.122               
H              7.301               0.314               2.836               
H              5.804               0.293               2.186               
H              6.421               1.686               2.77                
N              6.617               -1.597              5.448               
C              7.629               -2.358              6.225               
C              8.684               -2.976              5.293               
O              9.841               -3.218              5.689               
C              6.971               -3.467              7.054               
C              5.958               -3.052              8.117               
C              5.2                 -4.278              8.668               
C              6.622               -2.315              9.228               
H              5.733               -2.003              5.122               
H              8.088               -1.721              6.847               
H              6.5                 -4.082              6.417               
H              7.702               -3.973              7.518               
H              5.297               -2.419              7.716               
H              5.856               -4.908              9.075               
H              4.548               -3.973              9.358               
H              4.718               -4.725              7.918               
H              7.07                -1.484              8.879               
H              5.946               -2.046              9.923               
H              7.318               -2.894              9.666               
N              8.264               -3.256              4.064               
C              9.084               -3.913              3.031               
C              8.837               -3.245              1.718               
O              7.841               -2.532              1.586               
C              8.665               -5.378              2.848               
C              8.541               -6.074              4.142               
C              9.673               -6.491              4.812               
C              7.319               -6.29               4.721               
C              9.583               -7.098              6.023               
C              7.226               -6.938              5.949               
C              8.377               -7.333              6.574               
O              8.354               -7.964              7.77                
H              7.267               -2.963              3.878               
H              10.045              -3.794              3.286               
H              7.79                -5.385              2.383               
H              9.36                -5.823              2.299               
H              10.576              -6.341              4.391               
H              6.484               -5.985              4.27                
H              10.43               -7.373              6.513               
H              6.334               -7.107              6.358               
H              7.416               -8.242              7.989               
N              9.733               -3.517              0.753               
C              9.572               -3.132              -0.623              
C              8.477               -4.012              -1.209              
O              8.414               -5.216              -0.917              
C              10.844              -3.397              -1.443              
C              12.036              -2.592              -0.976              
O              11.876              -1.521              -0.382              
O              13.159              -3.069              -1.182              
H              10.573              -4.046              1.112               
H              9.232               -2.197              -0.642              
H              11.058              -4.366              -1.365              
H              10.648              -3.165              -2.391              
N              7.616               -3.41               -2.025              
C              6.604               -4.153              -2.763              
C              6.753               -3.809              -4.232              
O              6.64                -2.637              -4.6                
C              5.179               -3.848              -2.259              
C              4.113               -4.529              -3.057              
C              4.09                -5.892              -3.183              
C              3.145               -3.791              -3.73               
C              3.122               -6.528              -3.96               
C              2.163               -4.416              -4.521              
C              2.153               -5.766              -4.648              
H              7.728               -2.377              -2.088              
H              6.823               -5.12               -2.667              
H              5.122               -4.164              -1.327              
H              5.045               -2.874              -2.325              
H              4.772               -6.456              -2.715              
H              3.14                -2.792              -3.654              
H              3.115               -7.528              -4.032              
H              1.475               -3.831              -4.986              
H              1.483               -6.241              -5.211              
N              7.056               -4.808              -5.054              
C              7.179               -4.614              -6.485              
C              5.831               -4.947              -7.129              
O              5.267               -6.041              -6.959              
C              8.31                -5.496              -7.064              
C              8.482               -5.488              -8.621              
C              9.01                -4.168              -9.215              
O              9.985               -3.57               -8.666              
O              8.446               -3.727              -10.261             
H              7.195               -5.728              -4.584              
H              7.416               -3.668              -6.686              
H              9.167               -5.179              -6.684              
H              8.128               -6.433              -6.805              
H              9.128               -6.197              -8.849              
H              7.596               -5.659              -9.017              
N              5.309               -3.973              -7.849              
C              4.075               -4.164              -8.604              
C              4.347               -5.124              -9.745              
O              5.22                -4.86               -10.582             
C              3.597               -2.85               -9.124              
H              5.836               -3.079              -7.835              
H              3.386               -4.564              -8.001              
H              4.003               -2.097              -8.597              
H              3.855               -2.741              -10.089             
H              2.597               -2.788              -9.051              
N              3.621               -6.245              -9.764              
C              3.774               -7.275              -10.798             
C              2.602               -7.329              -11.751             
O              2.689               -7.943              -12.825             
C              3.949               -8.674              -10.162             
C              5.211               -8.961              -9.341              
C              5.272               -10.446             -9.083              
C              6.477               -8.491              -10.057             
H              2.935               -6.326              -8.981              
H              4.614               -7.066              -11.327             
H              3.158               -8.828              -9.558              
H              3.918               -9.347              -10.908             
H              5.153               -8.47               -8.483              
H              5.309               -10.942             -9.953              
H              6.09                -10.666             -8.546              
H              4.459               -10.737             -8.575              
H              6.422               -7.505              -10.214             
H              7.274               -8.696              -9.49               
H              6.558               -8.966              -10.933             
N              1.501               -6.71               -11.346             
C              0.295               -6.603              -12.158             
C              -0.177              -5.153              -12.15              
O              0.185               -4.365              -11.249             
C              -0.8                -7.566              -11.655             
C              -0.397              -9.001              -11.857             
C              -1.511              -9.996              -11.716             
O              -2.402              -9.828              -10.85              
O              -1.474              -10.985             -12.463             
H              1.572               -6.299              -10.381             
H              0.49                -6.886              -13.095             
H              -0.908              -7.407              -10.701             
H              -1.601              -7.393              -12.18              
H              -0.026              -9.094              -12.775             
H              0.296               -9.229              -11.181             
N              -0.966              -4.808              -13.175             
C              -1.214              -3.405              -13.517             
C              -1.989              -2.675              -12.429             
O              -1.838              -1.481              -12.239             
C              -1.925              -3.322              -14.873             
C              -2.673              -2.027              -15.126             
C              -4.057              -1.972              -14.449             
O              -4.729              -3.03               -14.249             
O              -4.461              -0.834              -14.125             
H              -1.377              -5.605              -13.694             
H              -0.33               -2.937              -13.673             
H              -1.236              -3.414              -15.575             
H              -2.58               -4.06               -14.911             
H              -2.146              -1.281              -14.76              
H              -2.826              -1.932              -16.094             
N              -2.809              -3.413              -11.697             
C              -3.589              -2.832              -10.608             
C              -2.8                -2.609              -9.289              
O              -3.373              -2.095              -8.328              
C              -4.856              -3.652              -10.341             
C              -4.58               -5.082              -9.943              
O              -3.42               -5.526              -10.011             
O              -5.558              -5.781              -9.593              
H              -2.85               -4.416              -11.957             
H              -3.898              -1.911              -10.913             
H              -5.359              -3.203              -9.605              
H              -5.403              -3.648              -11.175             
N              -1.511              -2.954              -9.25               
C              -0.732              -2.897              -7.998              
C              0.031               -1.577              -7.794              
O              0.574               -0.985              -8.74               
C              0.222               -4.091              -7.896              
C              -0.522              -5.413              -7.942              
C              0.338               -6.662              -7.942              
O              1.578               -6.559              -7.914              
O              -0.251              -7.783              -7.982              
H              -1.11               -3.259              -10.153             
H              -1.358              -3.045              -7.21               
H              0.823               -4.058              -8.664              
H              0.68                -4.034              -7.037              
H              -1.115              -5.462              -7.143              
H              -1.071              -5.432              -8.774              
N              0.07                -1.134              -6.545              
C              0.799               0.077               -6.165              
C              2.112               -0.377              -5.53               
O              2.114               -0.899              -4.386              
C              -0.012              0.857               -5.133              
C              0.67                2.104               -4.556              
C              0.721               3.154               -5.605              
C              -0.04               2.673               -3.35               
H              -0.458              -1.716              -5.859              
H              1.006               0.595               -6.983              
H              -0.855              1.157               -5.567              
H              -0.209              0.25                -4.372              
H              1.59                1.853               -4.267              
H              -0.208              3.395               -5.909              
H              1.165               3.985               -5.251              
H              1.242               2.83                -6.403              
H              -0.073              1.987               -2.62               
H              0.449               3.483               -3.018              
H              -0.976              2.934               -3.598              
N              3.227               -0.211              -6.243              
C              4.494               -0.559              -5.666              
C              5.021               0.533               -4.743              
O              4.661               1.703               -4.87               
H              3.091               0.168               -7.188              
H              4.409               -1.42               -5.138              
H              5.175               -0.723              -6.399              
N              5.878               0.132               -3.807              
C              6.549               1.064               -2.897              
C              7.841               0.492               -2.332              
O              8.128               -0.692              -2.479              
C              5.646               1.51                -1.729              
C              4.936               0.383               -1.002              
C              5.621               -0.487              -0.114              
C              3.584               0.214               -1.169              
C              4.925               -1.503              0.578               
C              2.876               -0.791              -0.473              
C              3.547               -1.651              0.391               
H              6.032               -0.9                -3.776              
H              6.802               1.874               -3.446              
H              6.216               1.982               -1.071              
H              4.954               2.115               -2.098              
H              6.592               -0.382              0.023               
H              3.072               0.809               -1.794              
H              5.428               -2.108              1.195               
H              1.879               -0.875              -0.614              
H              3.056               -2.368              0.876               
N              8.625               1.37                -1.709              
C              9.826               0.964               -1.013              
C              9.577               1.087               0.478               
O              8.778               1.908               0.932               
C              11.002              1.872               -1.337              
C              11.236              2.209               -2.804              
C              12.171              3.471               -2.876              
N              13.495              3.216               -2.263              
C              14.684              3.392               -2.861              
N              14.796              3.889               -4.097              
N              15.79               3.073               -2.207              
H              8.297               2.357               -1.77               
H              10.025              0.009               -1.228              
H              10.875              2.742               -0.841              
H              11.843              1.436               -0.987              
H              11.705              1.478               -3.253              
H              10.394              2.451               -3.238              
H              12.285              3.695               -3.832              
H              11.713              4.2                 -2.388              
H              13.502              2.879               -1.308              
H              13.965              4.158               -4.587              
H              15.69               3.989               -4.517              
H              15.739              2.723               -1.27               
H              16.683              3.181               -2.647              
N              10.312              0.29                1.237               
H              10.964              -0.332              0.7                 
H              10.2489             0.283755            2.23827             
