265
2.xyz
S              33.69               5.01                35.622              
C              22.814              4.096               17.224              
C              22.025              5.342               16.752              
O              22.526              6.49                16.8                
C              22.756              3.923               18.749              
O              23.241              5.083               19.408              
H              22.409              3.3                 16.782              
H              21.812              3.768               19.017              
H              23.321              3.146               19.003              
H              22.469              5.622               19.743              
N              20.782              5.138               16.325              
C              19.971              6.301               15.926              
C              19.521              7.105               17.121              
O              19.413              8.339               17.036              
C              18.732              5.869               15.16               
C              19.024              5.286               13.828              
C              19.628              6.061               12.828              
C              18.711              3.941               13.547              
C              19.883              5.54                11.568              
C              18.984              3.41                12.251              
C              19.56               4.223               11.306              
O              19.838              3.736               10.061              
H              20.46               4.176               16.299              
H              20.546              6.889               15.339              
H              18.248              5.188               15.712              
H              18.147              6.672               15.038              
H              19.879              7.009               13.03               
H              18.31               3.367               14.23               
H              20.296              6.111               10.86               
H              18.753              2.466               12.058              
H              20.554              3.041               10.128              
N              19.217              6.397               18.202              
C              18.855              7.05                19.469              
C              20.072              7.24                20.37               
O              21.075              6.489               20.284              
C              17.793              6.226               20.217              
O              16.685              5.894               19.389              
H              19.255              5.37                18.083              
H              18.484              7.961               19.251              
H              18.216              5.382               20.544              
H              17.466              6.761               20.995              
H              17.015              5.644               18.481              
N              19.984              8.202               21.293              
C              20.983              8.289               22.337              
C              20.803              7.144               23.345              
O              19.71               6.559               23.505              
C              20.955              9.649               23.099              
O              19.656              9.812               23.658              
C              21.288              10.816              22.156              
H              19.184              8.836               21.193              
H              21.895              8.198               21.927              
H              21.632              9.605               23.851              
H              20.655              10.809              21.382              
H              21.199              11.68               22.652              
H              22.226              10.717              21.823              
H              19.713              9.946               24.655              
N              21.904              6.802               23.986              
C              21.919              5.784               25.02               
C              22.634              6.278               26.273              
O              23.514              7.156               26.235              
C              22.577              4.52                24.468              
C              21.786              3.859               23.362              
S              22.531              2.269               22.97               
C              21.267              1.539               21.951              
H              22.761              7.324               23.687              
H              20.966              5.572               25.272              
H              23.49               4.757               24.113              
H              22.693              3.859               25.22               
H              20.828              3.742               23.664              
H              21.781              4.462               22.551              
H              20.542              2.209               21.775              
H              21.661              1.245               21.077              
H              20.872              0.743               22.416              
N              22.218              5.726               27.401              
C              22.822              6.069               28.676              
C              24.185              5.361               28.824              
O              24.247              4.147               28.805              
C              21.897              5.618               29.805              
O              22.487              5.901               31.044              
H              21.442              5.044               27.297              
H              22.995              7.056               28.693              
H              21.038              6.108               29.727              
H              21.751              4.64                29.723              
H              21.936              5.506               31.782              
N              25.252              6.134               28.969              
C              26.603              5.548               29.064              
C              27.372              6.144               30.216              
O              27.092              7.28                30.639              
C              27.448              5.759               27.767              
C              27.698              7.259               27.497              
C              26.789              5.028               26.58               
C              28.975              7.555               26.732              
H              25.07               7.147               29.009              
H              26.462              4.575               29.271              
H              28.329              5.321               27.908              
H              26.919              7.616               26.982              
H              27.736              7.727               28.38               
H              27.384              5.099               25.785              
H              26.658              4.071               26.822              
H              25.91               5.453               26.386              
H              28.94               7.099               25.844              
H              29.059              8.541               26.601              
H              29.756              7.217               27.253              
N              28.367              5.4                 30.693              
C              29.29               5.914               31.684              
C              30.715              5.773               31.158              
O              31.126              4.663               30.815              
C              29.155              5.158               33.008              
O              27.814              5.286               33.516              
C              30.161              5.694               34.023              
H              28.418              4.44                30.298              
H              29.104              6.887               31.828              
H              29.335              4.165               32.846              
H              29.728              6.398               34.589              
H              30.478              4.947               34.611              
H              30.945              6.092               33.543              
H              27.354              6.069               33.086              
N              31.434              6.892               31.044              
C              32.843              6.875               30.678              
C              33.69               6.75                31.939              
O              33.446              7.454               32.938              
C              33.251              8.138               29.907              
C              32.659              8.191               28.527              
O              32.617              7.14                27.839              
O              32.228              9.288               28.127              
H              30.902              7.766               31.238              
H              33.002              6.049               30.135              
H              32.936              8.924               30.429              
H              34.242              8.143               29.839              
N              34.661              5.837               31.906              
C              35.643              5.714               32.984              
C              37.008              6.091               32.439              
O              37.449              5.555               31.426              
C              35.686              4.285               33.536              
S              34.123              3.686               34.145              
H              34.66               5.231               31.063              
H              35.4                6.361               33.703              
H              36                  3.686               32.799              
H              36.354              4.27                34.282              
N              37.667              7.028               33.114              
C              38.947              7.559               32.671              
C              39.889              7.562               33.862              
O              39.52               8.007               34.965              
C              38.779              8.979               32.113              
C              37.843              9.133               30.927              
C              37.749              10.537              30.464              
N              36.852              10.687              29.327              
C              36.605              11.85               28.736              
N              37.014              12.997              29.268              
N              35.89               11.874              27.614              
H              37.187              7.348               33.986              
H              39.321              6.963               31.966              
H              38.437              9.564               32.856              
H              39.687              9.311               31.837              
H              38.179              8.561               30.173              
H              36.929              8.814               31.193              
H              37.412              11.107              31.217              
H              38.663              10.854              30.198              
H              36.396              9.868               28.971              
H              37.536              12.997              30.121              
H              36.8                13.863              28.814              
H              35.56               11.018              27.214              
H              35.683              12.745              27.172              
N              41.091              7.039               33.629              
C              42.103              6.868               34.67               
C              42.583              8.221               35.189              
O              42.797              9.145               34.398              
C              43.277              6.084               34.101              
C              43.956              5.205               35.105              
C              45.323              4.735               34.652              
O              45.726              5.014               33.497              
O              45.996              4.078               35.467              
H              41.25               6.759               32.632              
H              41.718              6.335               35.431              
H              42.929              5.512               33.378              
H              43.936              6.736               33.768              
H              44.084              5.715               35.94               
H              43.404              4.4                 35.251              
N              42.733              8.326               36.511              
C              43.143              9.578               37.167              
C              44.66               9.703               37.261              
O              45.399              8.849               36.759              
C              42.533              9.742               38.596              
O              43.002              8.701               39.465              
C              41.012              9.736               38.56               
H              42.536              7.449               37.04               
H              42.792              10.35               36.618              
H              42.84               10.64               38.974              
H              40.65               9.756               39.495              
H              40.68               10.541              38.062              
H              40.686              8.907               38.099              
H              42.673              7.806               39.146              
N              45.113              10.792              37.888              
C              46.532              11.008              38.186              
C              46.986              10.159              39.356              
O              48.02               9.497               39.283              
H              44.368              11.478              38.148              
H              47.079              10.78               37.37               
H              46.68               11.983              38.398              
N              46.197              10.165              40.429              
C              46.475              9.358               41.618              
C              46.534              7.848               41.324              
O              47.083              7.075               42.118              
C              45.439              9.644               42.712              
O              44.118              9.365               42.269              
H              45.366              10.792              40.35               
H              47.381              9.633               41.979              
H              45.642              9.072               43.503              
H              45.498              10.607              42.965              
H              44.154              8.73                41.499              
N              45.971              7.445               40.183              
C              45.943              6.047               39.756              
C              47.337              5.478               39.51               
O              48.059              5.941               38.623              
C              45.096              5.898               38.489              
O              45.175              4.583               37.966              
H              45.55               8.22                39.618              
H              45.513              5.504               40.496              
H              44.147              6.102               38.712              
H              45.43               6.54                37.804              
H              45.497              4.619               37.021              
N              47.693              4.469               40.302              
C              48.953              3.745               40.157              
C              48.7                2.249               40.326              
O              48.23               1.822               41.378              
C              49.97               4.228               41.205              
C              50.316              5.704               41.145              
C              51.32               6.096               42.205              
C              51.68               7.563               42.163              
N              52.665              7.897               43.22               
H              46.988              4.237               41.043              
H              49.319              3.908               39.24               
H              49.594              4.027               42.113              
H              50.814              3.698               41.08               
H              50.698              5.913               40.24               
H              49.478              6.241               41.274              
H              50.936              5.886               43.107              
H              52.157              5.559               42.073              
H              52.07               7.78                41.267              
H              50.851              8.108               42.302              
H              52.801              8.888               43.249              
H              52.325              7.582               44.107              
H              53.536              7.448               43.019              
N              48.999              1.46                39.293              
C              48.801              0.007               39.344              
C              49.23               -0.642              38.024              
C              49.052              -2.15               37.952              
C              47.851              -2.714              37.51               
C              50.095              -3.016              38.3                
C              47.686              -4.1                37.427              
C              49.943              -4.402              38.221              
C              48.74               -4.937              37.782              
O              48.594              -6.305              37.709              
H              49.378              1.954               38.463              
H              47.828              -0.173              39.494              
H              48.693              -0.232              37.284              
H              50.2                -0.439              37.876              
H              47.092              -2.117              37.248              
H              50.963              -2.636              38.609              
H              46.82               -4.484              37.115              
H              50.697              -5.003              38.48               
H              47.735              -6.518              37.247              
H              23.8309             4.17825             16.9023             
H              34.482              4.57119             36.6514             
H              49.3611             -0.417409           40.1907             
