302
0.xyz
N              -16.282             -2.693              1.737               
C              -14.972             -3.118              2.19                
C              -13.887             -2.25               1.564               
O              -12.88              -1.946              2.21                
C              -14.727             -4.61               1.898               
C              -14.733             -5.008              0.43                
C              -16.035             -4.7                -0.28               
O              -16.147             -3.611              -0.876              
O              -16.959             -5.538              -0.226              
H              -16.939             -3.447              1.818               
H              -14.916             -3.049              3.192               
H              -13.838             -4.841              2.268               
H              -15.444             -5.121              2.351               
H              -14.017             -4.506              -0.028              
H              -14.586             -5.982              0.373               
H              -16.608             -1.922              2.291               
H              -16.241             -2.404              0.777               
N              -14.106             -1.856              0.302               
C              -13.179             -0.992              -0.447              
C              -11.924             -1.758              -0.879              
O              -11.322             -1.456              -1.911              
C              -12.813             0.263               0.368               
C              -11.715             1.094               -0.275              
H              -14.998             -2.217              -0.109              
H              -13.655             -0.709              -1.287              
H              -13.631             0.827               0.454               
H              -12.505             -0.032              1.269               
O              -11.971             1.917               -1.151              
N              -10.485             0.905               0.181               
H              -10.32              0.236               0.909               
H              -9.721              1.426               -0.198              
N              -11.554             -2.765              -0.103              
C              -10.387             -3.583              -0.394              
C              -10.706             -4.611              -1.481              
O              -10.759             -5.817              -1.232              
C              -9.885              -4.305              0.874               
C              -8.533              -4.953              0.629               
C              -9.81               -3.339              2.047               
H              -12.167             -2.92               0.729               
H              -9.659              -2.984              -0.743              
H              -10.529             -5.038              1.078               
H              -8.612              -5.945              0.734               
H              -8.223              -4.742              -0.298              
H              -7.868              -4.602              1.289               
H              -9.672              -3.856              2.892               
H              -9.045              -2.71               1.909               
H              -10.664             -2.822              2.104               
N              -10.964             -4.112              -2.676              
C              -11.162             -4.96               -3.836              
C              -9.857              -5.013              -4.622              
O              -9.408              -3.992              -5.145              
C              -12.31              -4.414              -4.704              
C              -13.012             -5.428              -5.623              
C              -14.28              -4.823              -6.206              
C              -12.092             -5.891              -6.746              
H              -11.012             -3.071              -2.713              
H              -11.383             -5.883              -3.53               
H              -13.002             -4.041              -4.093              
H              -11.938             -3.697              -5.284              
H              -13.243             -6.239              -5.089              
H              -14.048             -4.008              -6.737              
H              -14.727             -5.492              -6.801              
H              -14.902             -4.57               -5.464              
H              -11.281             -6.326              -6.355              
H              -12.576             -6.548              -7.325              
H              -11.815             -5.103              -7.296              
N              -9.225              -6.193              -4.689              
C              -7.935              -6.372              -5.368              
C              -7.994              -5.965              -6.841              
O              -8.615              -6.641              -7.666              
C              -7.653              -7.874              -5.224              
C              -8.967              -8.492              -4.894              
C              -9.719              -7.455              -4.116              
H              -7.206              -5.861              -4.887              
H              -7.284              -8.246              -6.084              
H              -6.982              -8.037              -4.493              
H              -9.463              -8.74               -5.736              
H              -8.837              -9.328              -4.347              
H              -10.706             -7.538              -4.25               
H              -9.509              -7.503              -3.139              
N              -7.346              -4.853              -7.16               
C              -7.388              -4.284              -8.499              
C              -5.999              -3.847              -8.944              
O              -5.233              -3.274              -8.171              
C              -8.336              -3.084              -8.533              
C              -9.809              -3.459              -8.533              
C              -10.696             -2.223              -8.542              
N              -12.088             -2.543              -8.859              
C              -13.119             -1.736              -8.609              
N              -12.933             -0.579              -7.981              
N              -14.341             -2.091              -8.982              
H              -6.808              -4.425              -6.374              
H              -7.726              -4.983              -9.14               
H              -8.159              -2.525              -7.729              
H              -8.15               -2.563              -9.361              
H              -10.016             -3.996              -9.346              
H              -10.019             -3.984              -7.713              
H              -10.653             -1.804              -7.638              
H              -10.34              -1.592              -9.227              
H              -12.28              -3.43               -9.294              
H              -12.02              -0.289              -7.706              
H              -13.722             0.011               -7.782              
H              -14.481             -2.957              -9.468              
H              -15.12              -1.5                -8.782              
N              -5.699              -4.117              -10.209             
C              -4.424              -3.748              -10.814             
C              -4.197              -2.225              -10.814             
O              -3.076              -1.781              -10.573             
C              -4.341              -4.294              -12.239             
C              -2.997              -4.05               -12.906             
C              -2.952              -4.568              -14.326             
O              -3.156              -3.77               -15.265             
O              -2.722              -5.777              -14.512             
H              -6.454              -4.616              -10.734             
H              -3.666              -4.192              -10.313             
H              -4.481              -5.266              -12.196             
H              -5.027              -3.84               -12.775             
H              -2.84               -3.081              -12.936             
H              -2.307              -4.525              -12.393             
N              -5.232              -1.393              -11.112             
C              -5.121              0.065               -10.985             
C              -4.583              0.493               -9.615              
O              -3.902              1.515               -9.496              
C              -6.559              0.575               -11.18              
C              -7.425              -0.637              -11.221             
C              -6.548              -1.774              -11.652             
H              -4.545              0.445               -11.726             
H              -6.821              1.182               -10.418             
H              -6.631              1.101               -12.037             
H              -7.825              -0.816              -10.31              
H              -8.187              -0.504              -11.871             
H              -6.85               -2.641              -11.259             
H              -6.509              -1.853              -12.648             
N              -4.878              -0.298              -8.585              
C              -4.364              -0.032              -7.249              
C              -2.865              -0.255              -7.214              
O              -2.127              0.55                -6.659              
C              -5.024              -0.937              -6.213              
C              -6.53               -0.768              -6.05               
C              -7.048              -1.773              -5.038              
C              -6.869              0.652               -5.617              
H              -5.493              -1.102              -8.815              
H              -4.551              0.928               -7.019              
H              -4.857              -1.881              -6.481              
H              -4.605              -0.749              -5.331              
H              -6.973              -0.923              -6.929              
H              -6.6                -1.623              -4.155              
H              -8.037              -1.663              -4.93               
H              -6.851              -2.702              -5.355              
H              -6.545              1.299               -6.308              
H              -7.86               0.743               -5.516              
H              -6.425              0.849               -4.742              
N              -2.429              -1.355              -7.819              
C              -1.011              -1.692              -7.889              
C              -0.239              -0.578              -8.587              
O              0.781               -0.106              -8.086              
C              -0.781              -3.015              -8.654              
C              -1.619              -4.147              -8.048              
C              0.7                 -3.386              -8.654              
C              -1.288              -4.443              -6.601              
H              -3.178              -1.948              -8.234              
H              -0.681              -1.721              -6.943              
H              -1.079              -2.88               -9.593              
H              -2.583              -3.896              -8.117              
H              -1.463              -4.973              -8.589              
H              0.834               -4.214              -9.194              
H              1.229               -2.639              -9.051              
H              1.001               -3.547              -7.716              
H              -1.449              -3.625              -6.051              
H              -1.869              -5.187              -6.274              
H              -0.328              -4.711              -6.529              
N              -0.749              -0.158              -9.742              
C              -0.128              0.91                -10.52              
C              -0.015              2.192               -9.702              
O              1.045               2.824               -9.658              
C              -0.914              1.166               -11.798             
H              -1.617              -0.65               -10.038             
H              0.799               0.618               -10.789             
H              -0.283              1.402               -12.537             
H              -1.424              0.343               -12.047             
H              -1.552              1.921               -11.652             
N              -1.107              2.566               -9.044              
C              -1.127              3.752               -8.198              
C              -0.175              3.59                -7.007              
O              0.48                4.546               -6.586              
C              -2.553              4.036               -7.688              
O              -3.463              4.094               -8.796              
C              -2.609              5.349               -6.924              
H              -1.932              1.948               -9.184              
H              -0.817              4.541               -8.74               
H              -2.843              3.27                -7.079              
H              -1.679              5.669               -6.727              
H              -3.085              6.042               -7.471              
H              -3.101              5.22                -6.06               
H              -3.654              3.169               -9.139              
N              -0.09               2.369               -6.488              
C              0.756               2.076               -5.341              
C              2.23                2.172               -5.7                
O              2.986               2.834               -5.008              
C              0.435               0.703               -4.77               
H              -0.674              1.652               -6.968              
H              0.558               2.746               -4.611              
H              0.129               0.098               -5.505              
H              1.253               0.319               -4.343              
H              -0.289              0.786               -4.086              
N              2.632               1.524               -6.789              
C              4.025               1.563               -7.231              
C              4.472               3.008               -7.464              
O              5.576               3.398               -7.073              
C              4.232               0.737               -8.522              
C              5.657               0.874               -9.038              
C              3.891               -0.728              -8.284              
H              1.889               1                   -7.287              
H              4.597               1.178               -6.501              
H              3.63                1.115               -9.22               
H              5.859               1.838               -9.211              
H              6.295               0.518               -8.356              
H              5.756               0.356               -9.888              
H              2.966               -0.909              -8.617              
H              4.545               -1.303              -8.776              
H              3.941               -0.923              -7.305              
N              3.594               3.797               -8.084              
C              3.837               5.225               -8.278              
C              4.043               5.905               -6.933              
O              4.986               6.667               -6.744              
C              2.654               5.864               -9.03               
C              2.706               7.39                -9.123              
C              2.041               8.072               -7.925              
C              0.557               7.754               -7.849              
N              -0.174              8.235               -9.047              
H              2.734               3.314               -8.413              
H              4.667               5.341               -8.831              
H              2.642               5.495               -9.958              
H              1.812               5.608               -8.556              
H              3.665               7.68                -9.166              
H              2.237               7.681               -9.959              
H              2.48                7.75                -7.093              
H              2.153               9.056               -8.017              
H              0.442               6.759               -7.768              
H              0.173               8.19                -7.029              
H              -0.564              7.454               -9.536              
H              -0.909              8.852               -8.764              
H              0.458               8.724               -9.65               
N              3.14                5.612               -6.007              
C              3.189               6.167               -4.666              
C              4.525               5.846               -3.997              
O              5.255               6.742               -3.567              
C              2.038               5.597               -3.842              
C              1.957               6.187               -2.477              
C              1.472               7.467               -2.298              
C              2.367               5.464               -1.375              
C              1.4                 8.02                -1.046              
C              2.299               6.011               -0.114              
C              1.813               7.291               0.055               
H              2.395               4.951               -6.325              
H              3.146               7.168               -4.756              
H              1.198               5.798               -4.319              
H              2.184               4.626               -3.753              
H              1.169               7.996               -3.09               
H              2.716               4.532               -1.496              
H              1.047               8.959               -0.928              
H              2.609               5.47                0.688               
H              1.757               7.696               0.969               
N              4.844               4.558               -3.959              
C              6.02                4.05                -3.264              
C              7.299               4.684               -3.793              
O              8.078               5.262               -3.032              
C              6.106               2.529               -3.419              
C              4.82                1.767               -3.091              
C              4.966               0.297               -3.44               
C              4.441               1.931               -1.627              
H              4.175               3.935               -4.474              
H              5.936               4.274               -2.284              
H              6.336               2.331               -4.364              
H              6.812               2.199               -2.807              
H              4.067               2.162               -3.617              
H              5.72                -0.1                -2.914              
H              4.118               -0.187              -3.22               
H              5.158               0.201               -4.418              
H              4.297               2.901               -1.425              
H              3.599               1.424               -1.44               
H              5.177               1.577               -1.049              
N              7.501               4.591               -5.099              
C              8.75                5.028               -5.707              
C              8.663               6.471               -6.198              
O              9.448               6.896               -7.045              
C              9.132               4.097               -6.858              
C              9.329               2.653               -6.421              
C              9.683               1.736               -7.573              
H              6.711               4.189               -5.638              
H              9.472               4.988               -5.002              
H              8.407               4.118               -7.544              
H              9.987               4.419               -7.262              
H              10.068              2.621               -5.748              
H              8.482               2.328               -6.001              
O              8.804               1.184               -8.231              
N              10.972              1.552               -7.814              
H              11.286              0.939               -8.562              
H              11.656              2.039               -7.233              
N              7.709               7.225               -5.665              
H              7.062               6.732               -5.027              
H              7.641               8.21031             -5.88357            
