274
1.xyz
C              26.889              -6.475              -3.136              
O              27.178              -7.635              -2.831              
N              27.139              -5.958              -4.339              
C              27.796              -6.754              -5.384              
C              29.237              -7.089              -4.987              
O              29.765              -6.53               -4.02               
C              27.76               -6.036              -6.743              
O              28.808              -5.088              -6.873              
H              26.84               -4.979              -4.469              
H              27.293              -7.618              -5.477              
H              27.848              -6.719              -7.466              
H              26.884              -5.565              -6.83               
H              29.298              -5.249              -7.729              
N              29.869              -7.999              -5.727              
C              31.276              -8.344              -5.491              
C              32.198              -7.131              -5.673              
O              33.331              -7.122              -5.199              
C              31.72               -9.517              -6.382              
O              31.451              -9.271              -7.751              
H              29.293              -8.435              -6.471              
H              31.364              -8.656              -4.537              
H              32.701              -9.653              -6.261              
H              31.228              -10.336             -6.095              
H              31.281              -8.296              -7.887              
N              31.685              -6.106              -6.351              
C              32.41               -4.854              -6.557              
C              32.263              -3.881              -5.386              
O              33.016              -2.916              -5.293              
C              31.936              -4.158              -7.844              
C              32.125              -5.01               -9.086              
O              31.232              -5.121              -9.93               
N              33.291              -5.635              -9.193              
H              30.723              -6.274              -6.722              
H              33.394              -5.087              -6.623              
H              30.966              -3.948              -7.745              
H              32.458              -3.315              -7.952              
H              33.983              -5.536              -8.477              
H              33.481              -6.209              -9.992              
N              31.295              -4.146              -4.505              
C              30.85               -3.178              -3.491              
C              31.98               -2.567              -2.658              
O              32.145              -1.344              -2.636              
C              29.767              -3.797              -2.593              
C              29.261              -2.896              -1.483              
C              28.163              -2.053              -1.683              
C              29.871              -2.896              -0.227              
C              27.692              -1.228              -0.66               
C              29.41               -2.079              0.797               
C              28.323              -1.248              0.578               
O              27.87               -0.434              1.594               
H              30.879              -5.1                -4.596              
H              30.371              -2.419              -3.974              
H              28.989              -4.046              -3.172              
H              30.146              -4.623              -2.174              
H              27.707              -2.039              -2.572              
H              30.652              -3.496              -0.064              
H              26.908              -0.631              -0.818              
H              29.861              -2.09               1.69                
H              27.161              0.171               1.236               
N              32.756              -3.407              -1.98               
C              33.831              -2.906              -1.113              
C              34.902              -2.167              -1.887              
O              35.379              -1.131              -1.436              
C              34.447              -4.021              -0.281              
S              33.331              -4.596              0.985               
H              32.547              -4.408              -2.109              
H              33.417              -2.265              -0.448              
H              34.662              -4.775              -0.885              
H              35.266              -3.668              0.151               
N              35.271              -2.693              -3.053              
C              36.204              -1.988              -3.925              
C              35.74               -0.56               -4.222              
O              36.524              0.38                -4.12               
C              36.446              -2.77               -5.221              
C              37.225              -4.053              -4.993              
H              34.854              -3.609              -3.276              
H              37.08               -1.913              -3.429              
H              35.562              -3.001              -5.618              
H              36.963              -2.19               -5.845              
O              37.961              -4.188              -4.007              
N              37.084              -5                  -5.916              
H              36.494              -4.841              -6.708              
H              37.567              -5.87               -5.82               
N              34.459              -0.407              -4.559              
C              33.882              0.901               -4.877              
C              33.754              1.768               -3.628              
O              34.119              2.942               -3.639              
C              32.499              0.749               -5.52               
C              32.46               -0.028              -6.829              
C              31.034              -0.307              -7.29               
H              33.908              -1.291              -4.577              
H              34.508              1.368               -5.513              
H              31.89               0.283               -4.864              
H              32.124              1.67                -5.694              
H              32.921              0.506               -7.534              
H              32.927              -0.899              -6.7                
O              30.066              0.028               -6.597              
N              30.898              -0.919              -8.464              
H              29.98               -1.148              -8.827              
H              31.736              -1.153              -8.994              
N              33.242              1.17                -2.555              
C              32.881              1.905               -1.34               
C              34.072              2.333               -0.503              
O              34.069              3.421               0.086               
C              31.921              1.079               -0.48               
C              30.512              1.013               -1.034              
S              29.695              2.615               -1.01               
C              29.314              2.767               0.736               
H              33.12               0.138               -2.651              
H              32.377              2.743               -1.624              
H              32.28               0.141               -0.402              
H              31.884              1.481               0.443               
H              30.553              0.641               -1.988              
H              29.979              0.325               -0.492              
H              30.004              3.34                1.18                
H              28.412              3.186               0.846               
H              29.313              1.86                1.159               
N              35.085              1.474               -0.425              
C              36.277              1.823               0.34                
C              36.966              3.032               -0.289              
O              37.477              3.894               0.419               
C              37.231              0.635               0.475               
C              36.681              -0.51               1.336               
S              36.41               -0.062              3.066               
C              38.103              0.096               3.656               
H              34.958              0.588               -0.927              
H              35.993              2.077               1.267               
H              37.433              0.268               -0.44               
H              38.094              0.95                0.888               
H              35.807              -0.842              0.903               
H              37.331              -1.305              1.262               
H              38.485              0.963               3.338               
H              38.109              0.074               4.655               
H              38.65               -0.662              3.301               
N              36.952              3.099               -1.619              
C              37.503              4.239               -2.343              
C              36.641              5.498               -2.209              
O              37.153              6.564               -1.854              
C              37.708              3.889               -3.818              
C              38.42               4.973               -4.619              
C              38.448              4.638               -6.095              
C              39.26               5.661               -6.877              
N              39.242              5.39                -8.343              
H              36.519              2.277               -2.089              
H              38.426              4.444               -1.978              
H              38.253              3.055               -3.869              
H              36.812              3.733               -4.229              
H              37.938              5.84                -4.489              
H              39.358              5.059               -4.285              
H              38.866              3.744               -6.218              
H              37.518              4.638               -6.447              
H              38.881              6.575               -6.707              
H              40.21               5.64                -6.551              
H              39.335              6.252               -8.839              
H              40.002              4.784               -8.576              
H              38.377              4.954               -8.588              
N              35.338              5.364               -2.472              
C              34.425              6.514               -2.484              
C              34.24               7.183               -1.124              
O              33.96               8.384               -1.058              
C              33.063              6.141               -3.084              
O              32.372              5.206               -2.277              
H              35.031              4.391               -2.664              
H              34.812              7.208               -3.121              
H              32.513              6.97                -3.166              
H              33.212              5.744               -3.988              
H              33.006              4.798               -1.621              
N              34.397              6.408               -0.051              
C              34.296              6.941               1.304               
C              35.652              7.378               1.856               
O              35.78               7.68                3.052               
C              33.624              5.93                2.238               
C              32.177              5.603               1.873               
C              31.261              6.827               1.924               
N              29.872              6.43                1.697               
C              29.054              5.988               2.653               
N              29.47               5.905               3.918               
N              27.811              5.636               2.349               
H              34.594              5.41                -0.261              
H              33.681              7.745               1.292               
H              34.146              5.083               2.209               
H              33.63               6.305               3.16                
H              32.145              5.232               0.945               
H              31.819              4.924               2.515               
H              31.346              7.236               2.82                
H              31.547              7.452               1.213               
H              29.51               6.494               0.761               
H              30.391              6.191               4.167               
H              28.848              5.552               4.621               
H              27.488              5.723               1.404               
H              27.199              5.287               3.056               
N              36.646              7.421               0.967               
C              37.989              7.927               1.257               
C              38.767              7.144               2.306               
O              39.541              7.707               3.083               
C              37.938              9.424               1.568               
C              37.662              10.251              0.328               
H              36.377              7.052               0.016               
H              38.521              7.867               0.386               
H              37.211              9.584               2.226               
H              38.816              9.697               1.944               
O              38.457              10.25               -0.617              
N              36.526              10.944              0.313               
H              35.911              10.902              1.103               
H              36.289              11.502              -0.478              
N              38.569              5.827               2.289               
C              39.233              4.921               3.22                
C              40.437              4.247               2.564               
O              41.048              3.35                3.142               
C              38.232              3.883               3.75                
C              36.879              4.439               4.214               
C              36.001              3.335               4.751               
C              37.068              5.516               5.27                
H              37.901              5.502               1.555               
H              39.56               5.453               4.009               
H              38.051              3.235               3.019               
H              38.649              3.428               4.527               
H              36.431              4.88                3.435               
H              36.449              2.892               5.531               
H              35.122              3.714               5.05                
H              35.837              2.652               4.036               
H              37.61               6.267               4.89                
H              36.175              5.864               5.558               
H              37.544              5.13                6.061               
N              40.775              4.689               1.355               
C              41.951              4.183               0.643               
C              42.878              5.331               0.224               
O              43.724              5.175               -0.66               
C              41.562              3.343               -0.6                
O              40.954              4.185               -1.587              
C              40.606              2.207               -0.229              
H              40.142              5.415               0.964               
H              42.463              3.577               1.261               
H              42.411              2.942               -1                  
H              41.122              1.357               -0.118              
H              40.141              2.427               0.63                
H              39.926              2.09                -0.954              
H              40.224              3.689               -2.068              
N              42.72               6.479               0.878               
C              43.456              7.688               0.514               
C              44.921              7.629               0.954               
O              45.824              7.811               0.136               
C              42.759              8.927               1.092               
C              43.326              10.259              0.63                
C              42.608              11.416              1.305               
C              43.237              12.75               0.941               
N              42.467              13.891              1.513               
H              42.036              6.442               1.661               
H              43.428              7.797               -0.491              
H              41.792              8.888               0.831               
H              42.83               8.883               2.091               
H              44.296              10.3                0.863               
H              43.212              10.339              -0.358              
H              41.658              11.422              1.009               
H              42.662              11.298              2.291               
H              44.174              12.776              1.295               
H              43.261              12.838              -0.057              
H              43.094              14.509              1.986               
H              42.006              14.382              0.775               
H              41.789              13.542              2.158               
N              45.145              7.374               2.242               
C              46.493              7.385               2.817               
C              46.454              7.96                4.234               
C              46.076              9.43                4.26                
O              46.53               10.191              3.375               
O              45.328              9.828               5.179               
H              44.291              7.169               2.799               
H              47.064              7.972               2.22                
H              45.781              7.448               4.755               
H              47.357              7.855               4.634               
S              33.642              -3.301              2.52                
H              26.4172             -5.83774            -2.42894            
H              34.8224             -3.69698            3.01967             
H              46.9583             6.39328             2.83136             
