301
6.xyz
C              21.351              5.242               17.839              
O              21.851              5.457               18.956              
N              20.234              4.539               17.661              
C              19.482              3.964               18.781              
C              20.312              2.947               19.556              
O              20.027              2.682               20.724              
C              18.2                3.325               18.282              
H              19.942              4.433               16.667              
H              19.219              4.711               19.408              
H              18.336              2.34                18.17               
H              17.465              3.484               18.942              
H              17.945              3.726               17.401              
N              21.33               2.376               18.912              
C              22.163              1.375               19.573              
C              22.859              1.948               20.829              
O              23.122              1.201               21.783              
C              23.164              0.704               18.591              
C              24.03               -0.344              19.298              
C              22.411              0.039               17.457              
H              21.471              2.693               17.941              
H              21.571              0.618               19.876              
H              23.78               1.414               18.26               
H              23.663              -0.512              20.211              
H              24.019              -1.191              18.769              
H              24.966              -0.004              19.369              
H              21.754              -0.616              17.832              
H              21.924              0.735               16.927              
H              23.058              -0.441              16.863              
N              23.082              3.263               20.857              
C              23.754              3.899               22.006              
C              22.921              3.845               23.286              
O              23.435              4.163               24.36               
C              24.123              5.361               21.702              
S              25.289              5.558               20.358              
H              22.754              3.785               20.03               
H              24.62               3.401               22.172              
H              23.28               5.844               21.472              
H              24.518              5.751               22.533              
N              21.65               3.435               23.163              
C              20.725              3.277               24.311              
C              20.447              1.79                24.599              
O              19.603              1.46                25.456              
C              19.396              3.962               23.993              
O              18.655              3.181               23.043              
H              21.359              3.233               22.179              
H              21.172              3.669               25.119              
H              18.863              4.04                24.823              
H              19.575              4.852               23.599              
H              19.215              3.042               22.231              
N              21.143              0.908               23.879              
C              20.889              -0.531              23.957              
C              21.847              -1.259              24.926              
O              22.072              -0.743              26.017              
C              20.787              -1.12               22.548              
C              19.572              -0.51               21.819              
C              19.34               -0.988              20.396              
H              21.871              1.327               23.267              
H              19.949              -0.665              24.307              
H              21.592              -0.887              22.039              
H              20.646              -2.09               22.61               
H              18.746              -0.715              22.366              
H              19.689              0.495               21.807              
O              19.86               -2.018              19.952              
N              18.533              -0.223              19.663              
H              18.336              -0.468              18.689              
H              18.118              0.601               20.081              
N              22.38               -2.43               24.558              
C              23.098              -3.254              25.558              
C              23.112              -4.734              25.175              
C              23.759              -5.57               26.24               
C              23.895              -7.007              25.819              
C              24.56               -7.813              26.927              
N              24.671              -9.25               26.56               
H              22.257              -2.694              23.582              
H              22.601              -3.199              26.432              
H              22.175              -5.03               25.057              
H              23.625              -4.828              24.333              
H              24.673              -5.201              26.441              
H              23.205              -5.526              27.078              
H              22.997              -7.389              25.652              
H              24.462              -7.063              25.01               
H              25.476              -7.442              27.092              
H              24.014              -7.727              27.763              
H              24.979              -9.773              27.354              
H              23.778              -9.587              26.264              
H              25.331              -9.353              25.816              
C              29.18               6.152               21.681              
C              29.803              7.229               22.556              
O              30.368              6.937               23.61               
C              27.739              5.885               22.114              
S              26.95               4.638               21.068              
H              29.17               6.483               20.73               
H              27.748              5.551               23.041              
H              27.228              6.725               22.033              
N              29.739              8.471               22.085              
C              30.265              9.623               22.828              
C              29.431              10.836              22.516              
O              28.712              10.868              21.515              
C              31.703              9.946               22.429              
C              32.733              8.871               22.808              
C              34.164              9.219               22.41               
O              35.088              8.516               22.874              
O              34.384              10.149              21.606              
H              29.287              8.559               21.15               
H              30.235              9.425               23.809              
H              31.733              10.043              21.448              
H              31.968              10.777              22.888              
H              32.714              8.764               23.787              
H              32.49               8.038               22.342              
N              29.532              11.822              23.392              
C              29.045              13.172              23.117              
C              27.659              13.491              23.606              
O              26.981              12.653              24.209              
H              29.987              11.557              24.295              
H              29.712              13.848              23.52               
H              29.093              13.335              22.1                
N              27.266              14.74               23.356              
C              25.901              15.181              23.556              
C              25.442              15.892              22.281              
O              25.89               17.013              22.014              
C              25.795              16.113              24.764              
C              24.407              16.692              24.92               
H              28.028              15.365              23.006              
H              25.331              14.37               23.654              
H              26.019              15.593              25.582              
H              26.442              16.859              24.641              
O              23.414              15.978              24.8                
N              24.331              17.991              25.172              
H              25.169              18.536              25.243              
H              23.441              18.43               25.291              
N              24.547              15.255              21.496              
C              23.855              13.998              21.781              
C              24.795              12.789              21.782              
O              25.868              12.821              21.171              
C              22.851              13.889              20.632              
C              23.516              14.612              19.503              
C              24.156              15.793              20.175              
H              23.354              14.057              22.662              
H              22.686              12.931              20.395              
H              21.985              14.325              20.875              
H              24.201              14.031              19.069              
H              22.842              14.904              18.829              
H              24.961              16.109              19.676              
H              23.511              16.549              20.284              
N              24.37               11.743              22.469              
C              25.168              10.522              22.59               
C              24.963              9.681               21.347              
O              23.894              9.095               21.148              
C              24.705              9.757               23.808              
C              25.698              8.784               24.405              
C              26.986              9.194               24.784              
C              25.321              7.467               24.676              
C              27.877              8.293               25.377              
C              26.181              6.577               25.266              
C              27.458              6.987               25.619              
O              28.302              6.087               26.226              
H              23.435              11.856              22.911              
H              26.131              10.782              22.642              
H              24.455              10.42               24.527              
H              23.876              9.235               23.563              
H              27.27               10.135              24.629              
H              24.392              7.173               24.429              
H              28.796              8.583               25.623              
H              25.897              5.632               25.445              
H              28.997              5.796               25.571              
N              25.978              9.656               20.488              
C              25.859              9.03                19.167              
C              27.059              8.123               18.85               
O              28.095              8.224               19.506              
C              25.72               10.11               18.053              
C              24.373              10.861              18.167              
C              26.897              11.075              18.123              
H              26.848              10.11               20.826              
H              25.031              8.454               19.167              
H              25.711              9.64                17.178              
H              24.551              11.799              18.45               
H              23.923              10.851              17.279              
H              23.805              10.402              18.844              
H              27.422              11.015              17.275              
H              26.553              12.006              18.242              
H              27.479              10.829              18.898              
N              26.915              7.216               17.862              
C              28.049              6.372               17.509              
C              29.235              7.156               16.957              
O              29.071              8.009               16.077              
C              27.477              5.424               16.431              
C              25.986              5.47                16.625              
C              25.714              6.892               17.06               
H              28.338              5.807               18.305              
H              27.728              5.744               15.515              
H              27.826              4.495               16.561              
H              25.516              5.263               15.769              
H              25.706              4.822               17.33               
H              25.641              7.504               16.279              
H              24.893              6.951               17.621              
N              30.428              6.853               17.47               
C              31.664              7.459               16.939              
C              32.688              6.418               16.443              
O              33.619              6.762               15.732              
C              32.352              8.434               17.942              
C              31.485              9.644               18.202              
C              32.639              7.71                19.259              
H              30.416              6.177               18.249              
H              31.41               8.04                16.15               
H              33.191              8.752               17.51               
H              31.976              10.294              18.785              
H              31.255              10.09               17.335              
H              30.64               9.364               18.661              
H              33.036              6.816               19.06               
H              33.281              8.254               19.797              
H              31.784              7.598               19.762              
N              32.516              5.152               16.825              
C              33.409              4.082               16.327              
C              32.632              2.798               16.145              
O              31.678              2.52                16.885              
C              34.576              3.801               17.274              
C              35.406              4.998               17.613              
H              31.737              4.984               17.474              
H              33.77               4.373               15.438              
H              34.214              3.414               18.134              
H              35.178              3.108               16.853              
N              36.145              5.82                16.831              
C              35.547              5.464               18.903              
C              36.698              6.772               17.653              
N              36.328              6.53                18.898              
H              36.284              5.778               15.861              
H              35.104              5.027               19.705              
H              37.278              7.508               17.337              
N              33.04               2.013               15.149              
C              32.491              0.679               14.98               
C              33.459              -0.312              15.609              
O              34.595              -0.436              15.163              
C              32.278              0.374               13.494              
C              31.5                -0.884              13.253              
C              30.131              -0.825              12.992              
C              32.133              -2.127              13.302              
C              29.407              -1.995              12.789              
C              31.42               -3.297              13.098              
C              30.044              -3.225              12.831              
H              33.757              2.427               14.531              
H              31.649              0.637               15.512              
H              31.776              1.127               13.101              
H              33.167              0.272               13.078              
H              29.671              0.051               12.949              
H              33.116              -2.169              13.487              
H              28.416              -1.939              12.613              
H              31.881              -4.19               13.142              
H              29.527              -4.064              12.671              
N              33.008              -1.022              16.643              
C              33.926              -1.901              17.383              
C              34.005              -3.337              16.859              
O              35.099              -3.916              16.761              
C              33.582              -1.897              18.878              
C              34.786              -2.201              19.754              
O              35.854              -1.585              19.532              
O              34.666              -3.047              20.666              
H              32.017              -0.908              16.867              
H              34.859              -1.499              17.288              
H              33.238              -0.996              19.11               
H              32.89               -2.589              19.035              
N              32.843              -3.919              16.569              
C              32.753              -5.334              16.207              
C              31.362              -5.691              15.732              
O              30.41               -4.936              15.92               
C              33.108              -6.212              17.406              
H              32.017              -3.29               16.621              
H              33.41               -5.516              15.462              
H              33.912              -6.763              17.187              
H              33.305              -5.632              18.195              
H              32.338              -6.812              17.616              
N              31.255              -6.864              15.114              
C              29.958              -7.491              14.912              
C              30.024              -8.868              15.551              
O              31.085              -9.498              15.555              
C              29.593              -7.585              13.438              
O              30.465              -8.434              12.74               
H              32.15               -7.277              14.8                
H              29.274              -6.959              15.396              
H              28.659              -7.936              13.36               
H              29.637              -6.669              13.038              
H              30.986              -7.907              12.067              
N              28.895              -9.321              16.085              
C              28.838              -10.615             16.771              
C              27.581              -11.395             16.42               
O              26.57               -10.823             16.016              
C              28.956              -10.497             18.328              
C              30.322              -9.963              18.753              
C              27.833              -9.657              18.902              
O              27.535              -12.621             16.553              
H              28.076              -8.696              15.978              
H              29.638              -11.158             16.474              
H              28.87               -11.418             18.699              
H              30.284              -8.967              18.815              
H              30.565              -10.345             19.644              
H              31.007              -10.23              18.077              
H              27.396              -10.153             19.653              
H              28.204              -8.793              19.244              
H              27.157              -9.471              18.187              
H              21.8054             5.63287             16.9498             
H              29.7536             5.24796             21.7087             
H              24.1278             -2.89781            25.7131             
