377
2.xyz
C              40.333              4.429               2.545               
O              41.006              3.637               3.21                
N              40.647              4.819               1.309               
C              41.823              4.339               0.577               
C              42.755              5.495               0.19                
O              43.566              5.375               -0.731              
C              41.411              3.548               -0.691              
O              40.697              4.404               -1.595              
C              40.536              2.352               -0.325              
H              39.97               5.51                0.897               
H              42.335              3.709               1.174               
H              42.257              3.223               -1.16               
H              41.102              1.529               -0.252              
H              40.084              2.52                0.553               
H              39.841              2.213               -1.033              
H              39.739              4.497               -1.304              
N              42.642              6.606               0.915               
C              43.327              7.856               0.56                
C              44.802              7.87                0.98                
O              45.677              8.159               0.163               
C              42.575              9.044               1.175               
C              42.879              10.397              0.569               
C              42.073              11.479              1.278               
C              42.443              12.873              0.778               
N              41.498              13.905              1.313               
H              42.029              6.516               1.754               
H              43.278              7.977               -0.445              
H              41.59               8.867               1.079               
H              42.8                9.076               2.155               
H              43.847              10.597              0.677               
H              42.631              10.392              -0.394              
H              41.106              11.327              1.102               
H              42.26               11.434              2.253               
H              43.37               13.091              1.08                
H              42.404              12.881              -0.22               
H              41.272              14.55               0.585               
H              40.668              13.453              1.634               
H              41.935              14.387              2.069               
N              45.071              7.569               2.25                
C              46.433              7.625               2.794               
C              47.055              6.229               2.848               
O              48.281              6.073               2.891               
C              46.435              8.239               4.197               
C              45.701              9.575               4.273               
O              45.963              10.48               3.445               
O              44.86               9.72                5.189               
H              44.244              7.294               2.817               
H              46.985              8.169               2.154               
H              45.99               7.599               4.815               
H              47.38               8.382               4.471               
N              46.185              5.223               2.868               
C              46.57               3.816               2.856               
C              45.33               3.008               2.485               
O              44.248              3.571               2.308               
C              47.115              3.377               4.224               
C              46.117              3.519               5.358               
C              46.469              2.676               6.569               
N              45.437              2.839               7.596               
C              45.311              2.088               8.688               
N              44.324              2.331               9.54                
N              46.149              1.092               8.927               
H              45.179              5.534               2.894               
H              47.264              3.674               2.16                
H              47.378              2.42                4.158               
H              47.908              3.939               4.434               
H              46.076              4.479               5.648               
H              45.208              3.239               5.038               
H              46.507              1.731               6.291               
H              47.335              2.988               6.924               
H              44.763              3.585               7.464               
H              43.658              3.051               9.376               
H              44.244              1.77                10.378              
H              46.876              0.895               8.259               
H              46.065              0.544               9.752               
N              45.477              1.695               2.355               
C              44.302              0.847               2.248               
C              43.865              0.543               3.685               
O              44.616              -0.078              4.445               
C              44.614              -0.434              1.458               
S              45.29               -0.198              -0.249              
H              46.444              1.354               2.338               
H              43.578              1.357               1.811               
H              45.286              -0.968              1.975               
H              43.768              -0.966              1.374               
N              42.699              1.044               4.093               
C              42.171              0.681               5.41                
C              41.908              -0.823              5.36                
O              41.185              -1.281              4.486               
C              40.9                1.47                5.762               
C              40.494              1.35                7.233               
C              39.263              2.184               7.594               
C              38.863              1.921               9.047               
N              37.463              2.369               9.404               
H              42.229              1.674               3.436               
H              42.857              0.864               6.096               
H              41.064              2.43                5.562               
H              40.154              1.123               5.203               
H              40.299              0.384               7.437               
H              41.264              1.648               7.808               
H              39.485              3.14                7.496               
H              38.514              1.92                7.009               
H              38.938              0.929               9.232               
H              39.516              2.396               9.657               
H              36.978              1.603               9.816               
H              37.524              3.125               10.049              
H              37                  2.663               8.573               
N              42.548              -1.592              6.254               
C              42.518              -3.063              6.247               
C              41.132              -3.715              6.412               
O              40.818              -4.671              5.698               
C              43.411              -3.44               7.435               
C              44.241              -2.243              7.699               
C              43.395              -1.07               7.341               
H              42.974              -3.422              5.398               
H              42.846              -3.677              8.236               
H              43.981              -4.238              7.205               
H              44.516              -2.208              8.671               
H              45.084              -2.265              7.141               
H              42.829              -0.77               8.109               
H              43.945              -0.299              7.014               
N              40.339              -3.227              7.363               
C              39.009              -3.791              7.644               
C              38.01               -2.675              7.935               
O              38.297              -1.764              8.718               
C              39.013              -4.861              8.819               
C              40.036              -5.976              8.57                
C              39.254              -4.223              10.179              
H              40.733              -2.42               7.888               
H              38.702              -4.279              6.824               
H              38.111              -5.28               8.825               
H              40.493              -6.2                9.429               
H              39.564              -6.782              8.219               
H              40.708              -5.662              7.903               
H              38.407              -4.246              10.71               
H              39.967              -4.732              10.661              
H              39.545              -3.275              10.052              
N              36.845              -2.735              7.302               
C              35.806              -1.719              7.522               
C              36.022              -0.508              6.612               
C              35.095              0.659               6.95                
H              36.731              -3.535              6.658               
H              35.862              -1.451              8.493               
H              36.963              -0.199              6.712               
H              35.848              -0.783              5.671               
O              35.232              1.285               8.003               
N              34.17               0.976               6.041               
H              34.116              0.444               5.193               
H              33.543              1.73                6.205               
C              47.198              -9.646              -1.101              
O              48.262              -9.081              -0.873              
N              46.64               -9.659              -2.311              
C              47.319              -9.059              -3.463              
C              47.008              -7.565              -3.652              
O              47.4                -6.96               -4.656              
C              47.015              -9.843              -4.743              
O              45.75               -9.49               -5.263              
H              45.715              -10.115             -2.365              
H              48.32               -9.146              -3.316              
H              47.716              -9.635              -5.418              
H              47.021              -10.815             -4.53               
H              45.174              -9.129              -4.529              
N              46.299              -6.983              -2.689              
C              45.955              -5.564              -2.711              
C              47.201              -4.734              -2.452              
O              47.887              -4.945              -1.454              
C              44.893              -5.26               -1.655              
O              44.695              -3.863              -1.496              
H              46.01               -7.626              -1.918              
H              45.617              -5.34               -3.627              
H              44.031              -5.678              -1.935              
H              45.187              -5.645              -0.782              
H              44.58               -3.652              -0.527              
N              47.494              -3.804              -3.355              
C              48.636              -2.911              -3.202              
C              48.225              -1.465              -3.429              
O              47.816              -1.102              -4.53               
C              49.773              -3.29               -4.17               
C              50.455              -4.635              -3.895              
C              51.049              -4.708              -2.482              
C              52.018              -5.888              -2.347              
N              52.305              -6.233              -0.921              
H              46.846              -3.77               -4.169              
H              48.998              -3.002              -2.266              
H              49.394              -3.318              -5.097              
H              50.471              -2.572              -4.124              
H              49.78               -5.367              -3.997              
H              51.191              -4.768              -4.559              
H              51.546              -3.87               -2.302              
H              50.312              -4.83               -1.831              
H              51.617              -6.687              -2.805              
H              52.879              -5.651              -2.808              
H              52.268              -7.225              -0.809              
H              53.215              -5.9                -0.68               
H              51.621              -5.801              -0.335              
N              48.333              -0.651              -2.383              
C              48.102              0.79                -2.474              
C              48.87               1.349               -3.672              
O              50.037              0.992               -3.865              
C              48.558              1.478               -1.18               
C              48.32               2.971               -1.161              
C              47.11               3.491               -0.714              
C              49.294              3.863               -1.613              
C              46.875              4.862               -0.702              
C              49.069              5.238               -1.603              
C              47.852              5.726               -1.141              
O              47.611              7.082               -1.122              
H              48.597              -1.128              -1.491              
H              47.127              0.945               -2.63               
H              48.058              1.071               -0.42               
H              49.536              1.316               -1.071              
H              46.392              2.869               -0.395              
H              50.164              3.511               -1.947              
H              45.995              5.214               -0.372              
H              49.773              5.865               -1.924              
H              46.814              7.264               -0.55               
N              48.236              2.228               -4.482              
C              46.913              2.87                -4.355              
C              45.72               2.071               -4.929              
O              44.576              2.545               -4.886              
C              47.101              4.183               -5.125              
C              48.161              3.879               -6.151              
C              48.922              2.653               -5.716              
H              46.731              3.112               -3.376              
H              46.246              4.459               -5.57               
H              47.402              4.915               -4.511              
H              47.731              3.731               -7.061              
H              48.787              4.675               -6.249              
H              48.878              1.93                -6.409              
H              49.884              2.867               -5.527              
N              45.985              0.876               -5.447              
C              44.937              0.015               -5.992              
C              44.419              -0.919              -4.917              
O              44.753              -2.102              -4.899              
C              45.468              -0.803              -7.171              
C              46.09               0.061               -8.247              
H              46.991              0.609               -5.432              
H              44.176              0.612               -6.261              
H              46.159              -1.434              -6.829              
H              44.708              -1.31               -7.568              
O              47.212              -0.189              -8.684              
N              45.369              1.094               -8.669              
H              44.467              1.268               -8.27               
H              45.724              1.697               -9.381              
N              43.613              -0.377              -4.013              
C              43.144              -1.139              -2.869              
C              42.048              -2.121              -3.27               
O              41.027              -1.721              -3.838              
C              42.649              -0.2                -1.767              
S              43.903              0.978               -1.16               
H              43.356              0.611               -4.192              
H              43.918              -1.671              -2.501              
H              41.881              0.326               -2.124              
H              42.35               -0.755              -0.994              
N              42.264              -3.398              -2.953              
C              41.325              -4.464              -3.306              
C              40.712              -5.102              -2.069              
O              41.403              -5.331              -1.084              
C              42.009              -5.519              -4.167              
H              43.152              -3.57               -2.436              
H              40.584              -4.067              -3.866              
H              43                  -5.4                -4.115              
H              41.765              -6.429              -3.835              
H              41.711              -5.419              -5.116              
N              39.418              -5.403              -2.14               
C              38.668              -5.874              -0.981              
C              37.718              -7.038              -1.262              
O              37.052              -7.068              -2.297              
C              37.845              -4.719              -0.413              
C              38.679              -3.627              0.182               
C              39.072              -2.529              -0.581              
C              39.082              -3.692              1.521               
C              39.843              -1.515              -0.028              
C              39.867              -2.691              2.079               
C              40.244              -1.608              1.301               
O              41.001              -0.607              1.866               
H              38.994              -5.275              -3.082              
H              39.339              -6.183              -0.274              
H              37.298              -4.335              -1.153              
H              37.247              -5.084              0.297               
H              38.796              -2.47               -1.54               
H              38.8                -4.467              2.079               
H              40.108              -0.724              -0.578              
H              40.157              -2.751              3.032               
H              41.102              -0.784              2.843               
N              37.656              -7.975              -0.316              
C              36.614              -9.003              -0.285              
C              35.374              -8.414              0.404               
O              35.479              -7.792              1.468               
C              37.119              -10.275             0.424               
C              36.028              -11.214             0.959               
C              36.589              -12.531             1.533               
C              37.446              -12.344             2.806               
N              36.737              -11.676             3.963               
H              38.414              -7.913              0.401               
H              36.372              -9.251              -1.218              
H              37.68               -10.791             -0.227              
H              37.692              -9.992              1.197               
H              35.521              -10.742             1.685               
H              35.396              -11.437             0.213               
H              35.822              -13.132             1.76                
H              37.159              -12.966             0.836               
H              37.772              -13.254             3.108               
H              38.261              -11.794             2.565               
H              37.42               -11.322             4.595               
H              36.178              -10.932             3.609               
H              36.163              -12.35              4.418               
N              34.219              -8.593              -0.24               
C              32.936              -8.099              0.229               
C              32.137              -9.234              0.871               
O              31.784              -10.2               0.202               
C              32.114              -7.505              -0.938              
O              32.821              -6.395              -1.506              
C              30.728              -7.045              -0.463              
H              34.323              -9.137              -1.14               
H              33.095              -7.395              0.927               
H              32.008              -8.218              -1.658              
H              30.025              -7.44               -1.055              
H              30.581              -7.349              0.478               
H              30.676              -6.047              -0.503              
H              33.019              -5.708              -0.799              
N              31.855              -9.118              2.165               
C              31.061              -10.139             2.845               
C              29.833              -9.538              3.522               
O              29.956              -8.79               4.482               
C              31.889              -10.938             3.887               
O              33.138              -11.345             3.312               
C              31.112              -12.187             4.341               
H              32.231              -8.278              2.628               
H              30.748              -10.809             2.158               
H              32.085              -10.328             4.681               
H              30.134              -11.98              4.361               
H              31.283              -12.935             3.7                 
H              31.417              -12.452             5.255               
H              33.65               -10.544             2.985               
N              28.657              -9.884              3.006               
C              27.387              -9.498              3.607               
C              26.996              -10.496             4.7                 
O              27.209              -11.701             4.554               
C              26.286              -9.471              2.545               
C              26.37               -8.33               1.532               
C              25.239              -8.404              0.505               
H              28.723              -10.457             2.132               
H              27.506              -8.602              4.042               
H              26.31               -10.339             2.033               
H              25.392              -9.405              3.009               
H              26.299              -7.466              2.016               
H              27.237              -8.391              1.051               
O              24.061              -8.353              0.867               
N              25.59               -8.539              -0.768              
H              24.894              -8.608              -1.496              
H              26.584              -8.571              -1                  
N              26.412              -9.992              5.781               
C              25.961              -10.838             6.897               
C              24.84               -10.15              7.657               
O              24.626              -8.943              7.508               
C              27.129              -11.145             7.852               
H              26.3                -8.958              5.776               
H              25.617              -11.703             6.521               
H              27.142              -10.464             8.58                
H              27.001              -12.054             8.241               
H              27.984              -11.112             7.341               
N              24.127              -10.917             8.475               
C              23.179              -10.329             9.423               
C              21.75               -10.798             9.165               
C              21.195              -10.241             7.884               
H              24.294              -11.932             8.387               
H              23.203              -9.33               9.281               
H              21.752              -11.792             9.111               
H              21.18               -10.495             9.923               
O              20.567              -9.181              7.873               
N              21.446              -10.936             6.784               
H              21.973              -11.785             6.834               
H              21.108              -10.614             5.898               
H              46.6843             -10.143             -0.317859           
H              39.4514             4.86175             2.95262             
H              34.8085             -2.11828            7.35252             
H              23.4749             -10.5164            10.4528             
