199
3.xyz
C              5.22                -1.418              -9.526              
O              4.813               -2.485              -9.069              
N              4.465               -0.327              -9.595              
C              3.09                -0.324              -9.133              
C              2.593               1.071               -8.816              
O              3.346               2.041               -8.897              
H              4.939               0.504               -10.001             
H              2.495               -0.738              -9.843              
H              3.012               -0.903              -8.304              
N              1.317               1.171               -8.458              
C              0.715               2.449               -8.1                
C              0.091               2.366               -6.712              
O              -0.73               1.49                -6.445              
C              -0.363              2.869               -9.116              
C              -1.079              4.123               -8.643              
C              0.257               3.085               -10.489             
H              0.794               0.271               -8.456              
H              1.441               3.142               -8.072              
H              -1.041              2.142               -9.155              
H              -0.406              4.829               -8.42               
H              -1.683              4.458               -9.367              
H              -1.622              3.913               -7.829              
H              0.773               2.269               -10.75              
H              -0.469              3.252               -11.156             
H              0.87                3.874               -10.454             
N              0.483               3.282               -5.831              
C              0.019               3.259               -4.449              
C              -0.287              4.662               -3.939              
O              -0.062              5.65                -4.636              
C              1.075               2.613               -3.55               
C              1.677               1.349               -4.12               
C              1.135               0.105               -3.828              
C              2.789               1.401               -4.951              
C              1.682               -1.052              -4.349              
C              3.343               0.249               -5.478              
C              2.785               -0.974              -5.173              
O              3.334               -2.123              -5.694              
H              1.133               3.998               -6.206              
H              -0.833              2.719               -4.41               
H              1.809               3.272               -3.407              
H              0.647               2.388               -2.678              
H              0.333               0.044               -3.228              
H              3.194               2.288               -5.172              
H              1.278               -1.944              -4.13               
H              4.144               0.303               -6.076              
H              3.627               -1.95               -6.633              
N              -0.804              4.742               -2.718              
C              -1.005              6.029               -2.067              
C              0.354               6.68                -1.847              
O              1.385               6.01                -1.917              
C              -1.711              5.875               -0.711              
O              -0.878              5.122               0.181               
C              -3.042              5.161               -0.881              
H              -1.044              3.834               -2.283              
H              -1.541              6.615               -2.672              
H              -1.854              6.8                 -0.306              
H              -3.792              5.767               -0.604              
H              -3.169              4.901               -1.841              
H              -3.061              4.335               -0.313              
H              -0.805              4.169               -0.131              
N              0.359               7.982               -1.584              
C              1.613               8.695               -1.374              
C              2.437               8.061               -0.254              
O              3.63                7.808               -0.42               
C              1.368               10.176              -1.076              
C              2.618               11.016              -1.204              
C              2.781               11.9                -2.263              
C              3.648               10.907              -0.279              
C              3.928               12.662              -2.387              
C              4.797               11.66               -0.398              
C              4.932               12.537              -1.451              
O              6.079               13.288              -1.565              
H              -0.571              8.428               -1.543              
H              2.154               8.645               -2.224              
H              0.694               10.517              -1.721              
H              1.033               10.256              -0.145              
H              2.055               11.987              -2.95               
H              3.552               10.27               0.487               
H              4.027               13.302              -3.153              
H              5.532               11.57               0.279               
H              6.691               12.853              -2.223              
N              1.796               7.806               0.883               
C              2.477               7.222               2.035               
C              3.142               5.894               1.686               
O              4.32                5.684               1.973               
C              1.496               7.015               3.189               
C              0.804               8.283               3.654               
C              -0.325              8.003               4.625               
O              -0.053              7.473               5.721               
O              -1.485              8.317               4.291               
H              0.787               8.054               0.88                
H              3.176               7.866               2.377               
H              0.799               6.39                2.881               
H              2.003               6.653               3.952               
H              1.464               8.843               4.118               
H              0.417               8.731               2.87                
N              2.377               5.001               1.068               
C              2.876               3.678               0.712               
C              4.008               3.759               -0.311              
O              5.012               3.056               -0.195              
C              1.746               2.778               0.176               
C              2.308               1.466               -0.344              
C              0.713               2.527               1.265               
H              1.41                5.322               0.864               
H              3.244               3.245               1.546               
H              1.329               3.245               -0.598              
H              1.876               1.239               -1.217              
H              3.296               1.553               -0.475              
H              2.124               0.737               0.316               
H              -0.19               2.797               0.932               
H              0.709               1.555               1.498               
H              0.948               3.066               2.074               
N              3.844               4.623               -1.308              
C              4.866               4.811               -2.33               
C              6.166               5.305               -1.705              
O              7.241               4.774               -1.982              
C              4.382               5.783               -3.395              
H              2.944               5.14                -1.294              
H              5.042               3.929               -2.78               
H              3.716               5.328               -3.986              
H              3.952               6.573               -2.957              
H              5.158               6.09                -3.945              
N              6.057               6.324               -0.859              
C              7.213               6.866               -0.155              
C              7.909               5.781               0.662               
O              9.137               5.717               0.71                
C              6.79                8.032               0.744               
C              7.883               8.544               1.667               
C              7.539               9.886               2.288               
O              7.69                10.918              1.601               
O              7.125               9.911               3.465               
H              5.092               6.694               -0.745              
H              7.863               7.254               -0.818              
H              6.52                8.777               0.158               
H              6.044               7.72                1.307               
H              7.997               7.899               2.399               
H              8.703               8.663               1.141               
N              7.116               4.923               1.294               
C              7.654               3.825               2.089               
C              8.399               2.813               1.223               
O              9.541               2.459               1.513               
C              6.544               3.097               2.871               
O              5.995               3.977               3.859               
C              7.1                 1.858               3.558               
H              6.099               5.099               1.175               
H              8.305               4.205               2.761               
H              5.799               2.841               2.222               
H              6.476               1.085               3.422               
H              7.996               1.629               3.172               
H              7.2                 2.03                4.541               
H              5.412               4.671               3.424               
N              7.748               2.353               0.159               
C              8.326               1.327               -0.702              
C              9.591               1.804               -1.413              
O              10.554              1.05                -1.544              
C              7.293               0.817               -1.711              
C              6.12                0.094               -1.065              
C              5.194               -0.517              -2.102              
C              4.079               -1.316              -1.443              
N              4.607               -2.386              -0.551              
H              6.816               2.777               -0.001              
H              8.561               0.52                -0.136              
H              6.94                1.598               -2.217              
H              7.749               0.185               -2.331              
H              6.472               -0.635              -0.475              
H              5.601               0.746               -0.51               
H              4.785               0.212               -2.64               
H              5.718               -1.128              -2.685              
H              3.506               -0.691              -0.904              
H              3.512               -1.735              -2.159              
H              5.54                -2.616              -0.827              
H              4.608               -2.059              0.393               
H              4.026               -3.195              -0.625              
N              9.59                3.053               -1.866              
C              10.779              3.624               -2.49               
C              11.959              3.566               -1.526              
O              13.059              3.162               -1.901              
C              10.553              5.079               -2.943              
C              11.878              5.731               -3.314              
C              9.585               5.126               -4.116              
H              8.703               3.567               -1.742              
H              11.009              3.069               -3.294              
H              10.187              5.584               -2.168              
H              12.329              6.065               -2.486              
H              12.465              5.06                -3.765              
H              11.711              6.497               -3.934              
H              8.763               4.605               -3.887              
H              9.339               6.077               -4.304              
H              10.023              4.726               -4.921              
N              11.721              3.967               -0.281              
C              12.754              3.926               0.749               
C              12.248              4.56                2.036               
H              10.754              4.305               -0.109              
H              13.544              4.47                0.439               
H              11.39               5.042               1.857               
H              12.092              3.848               2.721               
H              12.927              5.208               2.379               
H              6.21742             -1.32587            -9.88407            
H              13.0879             2.89837             0.929966            
