341
2.xyz
C              4.853               -5.949              -4.786              
O              4.026               -5.927              -5.698              
N              4.975               -6.964              -3.936              
C              4.024               -8.068              -3.9                
C              3.801               -8.727              -5.26               
O              2.718               -9.242              -5.536              
C              2.687               -7.586              -3.33               
C              2.853               -6.756              -2.068              
H              5.802               -6.902              -3.304              
H              4.415               -8.78               -3.29               
H              2.234               -7.028              -4.019              
H              2.131               -8.384              -3.114              
O              2.317               -5.653              -1.963              
N              3.601               -7.282              -1.108              
H              4.026               -8.18               -1.241              
H              3.743               -6.787              -0.252              
N              4.826               -8.713              -6.105              
C              4.706               -9.261              -7.452              
C              4.861               -10.779             -7.497              
O              5.636               -11.365             -6.741              
C              5.722               -8.606              -8.393              
C              5.527               -7.11               -8.571              
C              4.352               -6.806              -9.49               
C              4.027               -5.32               -9.51               
N              3.252               -4.896              -8.312              
H              5.696               -8.29               -5.733              
H              3.791               -9.02               -7.822              
H              6.635               -8.763              -8.022              
H              5.643               -9.043              -9.287              
H              5.353               -6.694              -7.678              
H              6.356               -6.716              -8.967              
H              4.584               -7.092              -10.414             
H              3.553               -7.301              -9.165              
H              4.887               -4.8                -9.547              
H              3.493               -5.115              -10.337             
H              3.885               -4.64               -7.581              
H              2.679               -4.112              -8.548              
H              2.675               -5.652              -8.006              
N              4.106               -11.407             -8.392              
C              4.282               -12.82              -8.68               
C              5.591               -12.971             -9.435              
O              6.158               -11.982             -9.902              
C              3.128               -13.336             -9.537              
O              3.027               -12.596             -10.741             
H              3.394               -10.809             -8.857              
H              4.365               -13.308             -7.818              
H              3.292               -14.292             -9.757              
H              2.28                -13.24              -9.026              
H              2.337               -13.013             -11.332             
N              6.076               -14.202             -9.559              
C              7.31                -14.431             -10.296             
C              7.19                -13.922             -11.73              
O              8.08                -13.233             -12.22              
C              7.707               -15.909             -10.287             
C              9.105               -16.156             -10.845             
C              9.304               -17.597             -11.29              
N              8.91                -18.549             -10.257             
C              9.344               -19.803             -10.189             
N              8.926               -20.595             -9.211              
N              10.198              -20.265             -11.091             
H              5.525               -14.944             -9.107              
H              8.059               -13.934             -9.842              
H              7.689               -16.232             -9.35               
H              7.061               -16.41              -10.846             
H              9.256               -15.562             -11.635             
H              9.783               -15.952             -10.139             
H              8.751               -17.747             -12.106             
H              10.27               -17.722             -11.504             
H              8.266               -18.235             -9.548              
H              8.273               -20.279             -8.53               
H              9.276               -21.541             -9.155              
H              10.499              -19.665             -11.838             
H              10.539              -21.199             -11.032             
N              6.09                -14.25              -12.402             
C              5.936               -13.845             -13.798             
C              5.937               -12.323             -13.953             
O              6.601               -11.788             -14.84              
C              4.688               -14.468             -14.448             
C              3.484               -13.54              -14.554             
C              2.357               -14.127             -15.39              
O              2.462               -14.121             -16.635             
O              1.358               -14.587             -14.798             
H              5.391               -14.788             -11.877             
H              6.687               -14.236             -14.349             
H              4.936               -14.742             -15.364             
H              4.422               -15.242             -13.897             
H              3.133               -13.387             -13.649             
H              3.772               -12.708             -14.989             
N              5.209               -11.626             -13.085             
C              5.103               -10.171             -13.183             
C              6.414               -9.476              -12.812             
O              6.801               -8.49               -13.438             
C              3.955               -9.643              -12.315             
C              2.583               -9.982              -12.878             
O              2.499               -10.438             -14.038             
O              1.584               -9.786              -12.154             
H              4.738               -12.187             -12.355             
H              4.917               -9.95               -14.15              
H              4.039               -10.052             -11.413             
H              4.041               -8.656              -12.259             
N              7.091               -9.993              -11.791             
C              8.37                -9.436              -11.359             
C              9.411               -9.568              -12.464             
O              10.172              -8.64               -12.735             
C              8.848               -10.128             -10.092             
H              6.64                -10.81              -11.337             
H              8.245               -8.46               -11.151             
H              9.519               -10.831             -10.327             
H              9.271               -9.457              -9.483              
H              8.07                -10.553             -9.629              
N              9.435               -10.735             -13.097             
C              10.322              -10.987             -14.224             
C              10.056              -10.003             -15.36              
O              10.974              -9.345              -15.849             
C              10.165              -12.433             -14.736             
O              10.657              -13.346             -13.746             
C              10.937              -12.632             -16.028             
H              8.772               -11.446             -12.721             
H              11.274              -10.865             -13.918             
H              9.174               -12.624             -14.881             
H              10.33               -13.003             -16.735             
H              11.308              -11.755             -16.343             
H              11.694              -13.272             -15.878             
H              9.958               -13.507             -13.042             
N              8.795               -9.904              -15.774             
C              8.406               -8.984              -16.837             
C              8.936               -7.579              -16.57              
O              9.608               -6.986              -17.413             
C              6.882               -8.949              -16.992             
C              6.384               -7.976              -18.052             
C              4.875               -8.066              -18.235             
N              4.171               -8.171              -16.959             
C              4.021               -7.167              -16.102             
N              4.533               -5.974              -16.375             
N              3.364               -7.357              -14.966             
H              8.125               -10.528             -15.283             
H              8.791               -9.312              -17.709             
H              6.574               -9.862              -17.242             
H              6.486               -8.682              -16.118             
H              6.609               -7.044              -17.779             
H              6.815               -8.188              -18.926             
H              4.572               -7.245              -18.712             
H              4.68                -8.873              -18.787             
H              3.774               -9.063              -16.714             
H              5.018               -5.804              -17.229             
H              4.43                -5.225              -15.709             
H              2.965               -8.256              -14.768             
H              3.264               -6.612              -14.311             
N              8.632               -7.057              -15.388             
C              9.029               -5.702              -15.024             
C              10.547              -5.551              -14.991             
O              11.089              -4.542              -15.442             
C              8.436               -5.29               -13.664             
C              6.908               -5.34               -13.718             
C              8.914               -3.9                -13.274             
C              6.238               -5.076              -12.387             
H              8.097               -7.686              -14.757             
H              8.697               -5.102              -15.761             
H              8.742               -5.946              -12.985             
H              6.593               -4.662              -14.38              
H              6.636               -6.247              -14.039             
H              8.552               -3.662              -12.374             
H              9.912               -3.886              -13.244             
H              8.593               -3.235              -13.947             
H              6.494               -4.167              -12.062             
H              5.247               -5.125              -12.5               
H              6.534               -5.763              -11.725             
N              11.228              -6.562              -14.461             
C              12.685              -6.55               -14.387             
C              13.303              -6.443              -15.778             
O              14.207              -5.64               -16.005             
C              13.196              -7.802              -13.667             
C              14.713              -7.902              -13.568             
S              15.485              -8.639              -15.024             
C              14.788              -10.289             -14.981             
H              10.644              -7.346              -14.111             
H              12.967              -5.74               -13.86              
H              12.815              -7.819              -12.731             
H              12.855              -8.62               -14.153             
H              15.088              -6.959              -13.396             
H              14.947              -8.439              -12.721             
H              13.951              -10.314             -15.529             
H              15.448              -10.942             -15.355             
H              14.574              -10.538             -14.036             
N              12.807              -7.255              -16.707             
C              13.308              -7.241              -18.077             
C              12.991              -5.92               -18.771             
O              13.749              -5.462              -19.626             
C              12.741              -8.419              -18.874             
C              13.273              -9.799              -18.476             
C              12.517              -10.908             -19.194             
C              14.768              -9.897              -18.75              
H              12.051              -7.884              -16.379             
H              14.309              -7.355              -18.054             
H              11.757              -8.431              -18.742             
H              12.966              -8.278              -19.83              
H              13.169              -9.913              -17.486             
H              12.623              -10.799             -20.183             
H              12.884              -11.796             -18.917             
H              11.547              -10.86              -18.956             
H              15.251              -9.199              -18.221             
H              15.098              -10.804             -18.484             
H              14.939              -9.753              -19.725             
N              11.87               -5.31               -18.398             
C              11.496              -4.012              -18.945             
C              12.482              -2.946              -18.478             
O              12.843              -2.045              -19.235             
C              10.071              -3.641              -18.53              
C              9.534               -2.434              -19.231             
H              11.301              -5.826              -17.702             
H              11.538              -4.062              -19.946             
H              9.461               -4.418              -18.724             
H              10.056              -3.465              -17.539             
N              8.851               -2.511              -20.427             
C              9.58                -1.12               -18.909             
C              8.499               -1.295              -20.81              
N              8.932               -0.434              -19.906             
H              8.654               -3.355              -20.924             
H              10.006              -0.723              -18.1               
H              7.996               -1.067              -21.637             
N              12.914              -3.055              -17.226             
C              13.93               -2.161              -16.685             
C              15.247              -2.346              -17.431             
O              15.876              -1.378              -17.858             
C              14.17               -2.423              -15.186             
C              15.339              -1.587              -14.682             
C              12.911              -2.133              -14.384             
H              12.472              -3.819              -16.677             
H              13.624              -1.215              -16.827             
H              14.429              -3.377              -15.083             
H              16.158              -2.158              -14.628             
H              15.503              -0.828              -15.312             
H              15.124              -1.226              -13.775             
H              12.38               -1.424              -14.848             
H              12.366              -2.968              -14.311             
H              13.166              -1.818              -13.47              
N              15.654              -3.601              -17.586             
C              16.92               -3.932              -18.23              
C              16.963              -3.491              -19.69              
O              18.003              -3.054              -20.183             
C              17.184              -5.437              -18.13              
C              18.436              -5.88               -18.82              
H              14.999              -4.319              -17.212             
H              17.664              -3.455              -17.735             
H              17.25               -5.693              -17.159             
H              16.407              -5.932              -18.536             
N              19.674              -5.834              -18.218             
C              18.64               -6.383              -20.061             
C              20.588              -6.287              -19.057             
N              19.986              -6.627              -20.183             
H              19.851              -5.508              -17.288             
H              17.945              -6.545              -20.756             
H              21.564              -6.359              -18.874             
N              15.83               -3.601              -20.375             
C              15.776              -3.325              -21.808             
C              15.365              -1.891              -22.137             
O              15.9                -1.284              -23.064             
C              14.837              -4.313              -22.506             
C              15.381              -5.73               -22.583             
C              14.403              -6.696              -23.217             
H              15.007              -3.893              -19.817             
H              16.707              -3.472              -22.188             
H              13.97               -4.338              -22.006             
H              14.67               -3.991              -23.44              
H              16.22               -5.722              -23.127             
H              15.587              -6.045              -21.656             
O              13.29               -6.878              -22.729             
N              14.817              -7.328              -24.309             
H              14.22               -8.002              -24.782             
H              15.749              -7.126              -24.67              
N              14.415              -1.355              -21.378             
C              13.877              -0.025              -21.653             
C              14.475              1.079               -20.784             
O              14.299              2.263               -21.068             
C              12.351              -0.031              -21.531             
C              11.685              -0.873              -22.603             
H              14.096              -1.95               -20.591             
H              14.114              0.198               -22.617             
H              12.108              -0.401              -20.639             
H              12.026              0.906               -21.615             
O              11.03               -1.871              -22.306             
N              11.859              -0.479              -23.858             
H              12.412              0.333               -24.054             
H              11.441              -0.99               -24.608             
N              15.178              0.689               -19.725             
C              15.858              1.647               -18.87              
C              15.062              2.067               -17.649             
O              15.604              2.678               -16.728             
H              15.196              -0.337              -19.568             
H              16.75               1.251               -18.566             
H              16.092              2.478               -19.418             
N              13.774              1.742               -17.642             
C              12.898              2.077               -16.524             
C              11.69               1.145               -16.503             
O              11.251              0.668               -17.548             
C              12.429              3.548               -16.595             
C              11.876              3.866               -17.975             
C              11.397              3.841               -15.514             
H              13.448              1.235               -18.491             
H              13.41               1.939               -15.672             
H              13.228              4.125               -16.459             
H              10.887              3.717               -17.982             
H              12.069              4.821               -18.201             
H              12.306              3.27                -18.654             
H              10.607              3.242               -15.642             
H              11.804              3.675               -14.616             
H              11.11               4.796               -15.583             
N              11.164              0.877               -15.311             
C              10.014              0.003               -15.167             
C              9.08                0.434               -14.053             
O              9.524               0.882               -12.996             
H              11.64               1.34                -14.512             
H              9.499               -0.022              -16.043             
H              10.333              -0.945              -14.987             
N              7.779               0.299               -14.291             
C              6.775               0.671               -13.299             
C              6.508               -0.481              -12.336             
O              6.066               -1.555              -12.744             
C              5.456               1.104               -13.966             
C              4.445               1.531               -12.913             
C              5.71                2.229               -14.956             
H              7.544               -0.087              -15.226             
H              7.134               1.445               -12.765             
H              5.077               0.31                -14.43              
H              3.526               1.52                -13.308             
H              4.481               0.899               -12.139             
H              4.66                2.455               -12.598             
H              5.407               3.095               -14.558             
H              6.688               2.277               -15.159             
H              5.201               2.05                -15.798             
N              6.779               -0.249              -11.055             
C              6.649               -1.286              -10.039             
C              7.592               -1.004              -8.869              
S              9.326               -0.839              -9.337              
H              7.087               0.722               -10.845             
H              6.915               -2.17               -10.454             
H              7.3                 -0.154              -8.434              
H              7.511               -1.758              -8.219              
H              9.391               -0.384              -10.226             
H              5.62281             -1.38079            -9.6706             
H              5.52237             -5.13585            -4.63454            
