381
2.xyz
C              30.74               0.669               -3.446              
O              30.043              0.591               -2.444              
N              31.882              1.314               -3.443              
C              32.336              2.085               -2.267              
C              31.592              3.387               -2.066              
O              30.912              3.86                -2.993              
C              33.79               2.51                -2.338              
O              33.932              3.455               -3.394              
C              34.702              1.335               -2.624              
H              32.44               1.247               -4.315              
H              32.199              1.501               -1.445              
H              34.05               2.968               -1.465              
H              35.161              1.044               -1.781              
H              34.168              0.566               -2.986              
H              35.397              1.596               -3.3                
H              33.891              2.995               -4.289              
N              31.723              4.024               -0.875              
C              31.067              5.342               -0.559              
C              31.486              6.405               -1.563              
O              30.711              7.223               -2.06               
C              31.472              5.943               0.781               
C              30.94               5.109               1.922               
C              31.449              5.753               3.189               
H              32.321              3.524               -0.186              
H              30.079              5.199               -0.638              
H              32.46               5.963               0.839               
H              31.091              6.855               0.853               
H              29.965              5.142               1.918               
H              31.301              4.205               1.856               
O              32.642              5.991               3.41                
N              30.537              6.146               4.027               
H              30.794              6.586               4.93                
H              29.549              6.025               3.803               
N              32.768              6.397               -1.862              
C              33.35               7.336               -2.82               
C              32.708              7.161               -4.214              
O              32.309              8.146               -4.86               
C              34.876              7.076               -2.841              
C              35.636              8.044               -3.752              
C              36.859              7.363               -4.304              
O              37.804              7.114               -3.562              
O              36.854              7.013               -5.493              
H              33.332              5.674               -1.366              
H              33.202              8.278               -2.508              
H              35.208              7.201               -1.93               
H              35.016              6.172               -3.183              
H              35.055              8.276               -4.494              
H              35.924              8.799               -3.215              
N              32.606              5.897               -4.693              
C              32.002              5.667               -6.008              
C              30.551              6.148               -5.992              
O              30.144              6.86                -6.914              
C              32.137              4.177               -6.318              
C              33.593              3.909               -6.705              
C              33.996              2.434               -6.849              
O              33.495              1.585               -6.122              
O              34.93               2.165               -7.617              
H              32.97               5.168               -4.082              
H              32.513              6.168               -6.706              
H              31.954              3.686               -5.515              
H              31.591              3.978               -7.08               
H              33.764              4.344               -7.582              
H              34.178              4.303               -6.004              
N              29.794              5.888               -4.899              
C              28.385              6.327               -4.82               
C              28.194              7.858               -4.931              
O              27.285              8.362               -5.6                
C              27.775              5.829               -3.519              
H              30.276              5.372               -4.152              
H              27.87               5.889               -5.578              
H              27.348              4.937               -3.669              
H              28.49               5.742               -2.826              
H              27.084              6.479               -3.203              
N              28.972              8.643               -4.196              
C              28.911              10.127              -4.257              
C              29.39               10.601              -5.632              
O              28.864              11.574              -6.17               
C              29.801              10.758              -3.158              
C              29.718              12.276              -3.031              
C              28.268              12.683              -2.869              
C              30.563              12.732              -1.835              
H              29.635              8.14                -3.567              
H              27.961              10.404              -4.136              
H              29.523              10.365              -2.29               
H              30.741              10.521              -3.366              
H              30.092              12.692              -3.854              
H              27.887              12.257              -2.046              
H              28.204              13.679              -2.785              
H              27.742              12.385              -3.668              
H              31.512              12.458              -1.98               
H              30.508              13.726              -1.753              
H              30.212              12.305              -1.003              
N              30.431              9.977               -6.193              
C              30.899              10.311              -7.536              
C              29.738              10.075              -8.525              
O              29.512              10.906              -9.416              
C              32.099              9.438               -7.877              
C              33.345              9.516               -7.007              
C              34.491              8.641               -7.382              
O              34.476              7.877               -8.342              
O              35.461              8.76                -6.609              
H              30.869              9.247               -5.598              
H              31.173              11.265              -7.576              
H              31.789              8.48                -7.862              
H              32.381              9.665               -8.816              
H              33.664              10.467              -7.024              
H              33.073              9.282               -6.069              
N              28.956              8.977               -8.394              
C              27.762              8.722               -9.291              
C              26.718              9.824               -9.089              
O              26.299              10.456              -10.046             
C              27.057              7.379               -8.985              
C              27.836              6.197               -9.56               
C              27.451              4.847               -8.887              
C              27.564              6.174               -11.054             
H              29.231              8.33                -7.643              
H              28.086              8.747               -10.232             
H              27.023              7.276               -8.016              
H              26.181              7.4                 -9.41               
H              28.819              6.348               -9.425              
H              26.481              4.685               -9.033              
H              27.989              4.121               -9.302              
H              27.648              4.91                -7.914              
H              27.872              7.034               -11.465             
H              28.058              5.411               -11.474             
H              26.582              6.062               -11.215             
N              26.297              10.093              -7.84               
C              25.332              11.141              -7.451              
C              25.763              12.485              -8.074              
O              24.953              13.227              -8.62               
C              25.302              11.244              -5.876              
C              24.383              10.104              -5.394              
C              24.84               12.633              -5.326              
C              22.859              10.357              -5.363              
H              26.741              9.453               -7.113              
H              24.468              10.896              -7.88               
H              26.204              11.07               -5.558              
H              24.552              9.292               -5.977              
H              24.671              9.844               -4.456              
H              24.862              12.6                -4.335              
H              25.463              13.326              -5.665              
H              23.918              12.806              -5.648              
H              22.556              10.571              -6.285              
H              22.41               9.535               -5.032              
H              22.679              11.12               -4.753              
N              27.044              12.844              -7.951              
C              27.464              14.083              -8.56               
C              27.45               14.03               -10.08              
O              27.327              15.07               -10.705             
C              28.854              14.459              -8.016              
C              28.703              15.095              -6.651              
H              27.639              12.208              -7.429              
H              26.797              14.798              -8.286              
H              29.385              13.638              -7.931              
H              29.261              15.108              -8.63               
O              27.919              16.012              -6.422              
N              29.442              14.616              -5.69               
H              30.084              13.86               -5.868              
H              29.384              14.992              -4.76               
N              27.679              12.851              -10.684             
C              27.621              12.688              -12.17              
C              26.167              12.963              -12.603             
O              25.894              13.798              -13.445             
H              27.898              12.068              -10.045             
H              28.223              13.345              -12.591             
H              27.868              11.763              -12.404             
N              25.196              12.365              -11.932             
C              23.752              12.548              -12.196             
C              23.36               13.991              -12.008             
O              22.613              14.549              -12.81              
C              22.848              11.666              -11.24              
C              23.128              10.206              -11.351             
C              23.263              9.616               -12.623             
C              23.21               9.423               -10.178             
C              23.471              8.238               -12.726             
C              23.422              8.044               -10.279             
C              23.549              7.455               -11.564             
O              23.659              6.086               -11.733             
H              25.538              11.723              -11.165             
H              23.583              12.287              -13.152             
H              23.03               11.974              -10.316             
H              21.907              11.846              -11.495             
H              23.21               10.174              -13.435             
H              23.119              9.85                -9.297              
H              23.566              7.808               -13.622             
H              23.484              7.477               -9.471              
H              23.295              5.63                -10.925             
N              23.828              14.637              -10.934             
C              23.532              16.079              -10.688             
C              24.04               16.965              -11.838             
O              23.296              17.779              -12.401             
C              24.189              16.524              -9.338              
C              23.397              15.971              -8.118              
C              24.244              18.055              -9.265              
C              24.278              16.29               -6.879              
H              24.405              14.068              -10.293             
H              22.532              16.154              -10.685             
H              25.102              16.139              -9.306              
H              22.571              16.447              -8.042              
H              23.325              15.02               -8.205              
H              24.699              18.327              -8.421              
H              24.752              18.402              -10.049             
H              23.316              18.417              -9.278              
H              24.4                17.274              -6.829              
H              23.811              15.954              -6.07               
H              25.152              15.834              -6.993              
N              25.312              16.864              -12.207             
C              25.771              17.724              -13.298             
C              25.014              17.441              -14.636             
O              24.705              18.351              -15.407             
C              27.287              17.538              -13.418             
C              28.139              18.201              -12.289             
C              27.465              19.42               -11.638             
H              25.884              16.198              -11.71              
H              25.578              18.682              -13.051             
H              27.501              16.557              -13.409             
H              27.6                17.929              -14.289             
H              28.304              17.513              -11.585             
H              29.007              18.49               -12.689             
O              27.26               20.521              -12.164             
N              27.037              19.229              -10.418             
H              26.584              19.998              -9.9                
H              27.148              18.322              -9.975              
N              24.671              16.184              -14.926             
C              23.884              15.815              -16.141             
C              22.415              16.306              -16.096             
O              21.817              16.637              -17.126             
C              23.952              14.322              -16.28              
C              25.369              14.075              -16.722             
C              25.596              12.605              -17.046             
C              27.075              12.254              -17.25              
N              27.675              13.113              -18.278             
H              24.994              15.473              -14.239             
H              24.335              16.228              -16.947             
H              23.82               13.916              -15.419             
H              23.354              14.041              -16.979             
H              25.562              14.615              -17.542             
H              25.999              14.342              -15.992             
H              25.245              12.049              -16.292             
H              25.103              12.377              -17.886             
H              27.55               12.379              -16.379             
H              27.135              11.295              -17.528             
H              27.921              12.564              -19.081             
H              27.022              13.823              -18.554             
H              28.501              13.552              -17.917             
N              21.767              16.293              -14.932             
C              20.391              16.829              -14.767             
C              20.449              18.363              -14.941             
O              19.599              19.008              -15.578             
C              19.833              16.508              -13.362             
C              19.563              14.995              -13.262             
C              18.522              17.293              -13.081             
C              19.595              14.58               -11.767             
H              22.301              15.876              -14.14              
H              19.867              16.478              -15.531             
H              20.526              16.738              -12.698             
H              18.679              14.804              -13.617             
H              20.272              14.516              -13.727             
H              18.207              17.068              -12.166             
H              18.713              18.265              -13.149             
H              17.842              17.028              -13.755             
H              18.891              15.089              -11.287             
H              19.42               13.604              -11.71              
H              20.493              14.796              -11.403             
N              21.478              18.99               -14.365             
C              21.613              20.442              -14.549             
C              21.891              20.838              -16.03              
O              21.445              21.875              -16.526             
C              22.74               20.966              -13.633             
C              22.345              20.991              -12.128             
C              23.434              21.661              -11.263             
C              23.195              21.539              -9.766              
N              22.232              22.552              -9.34               
H              22.115              18.413              -13.826             
H              20.754              20.891              -14.264             
H              23.525              20.372              -13.729             
H              22.959              21.893              -13.903             
H              21.498              21.504              -12.032             
H              22.219              20.054              -11.818             
H              24.314              21.235              -11.485             
H              23.471              22.633              -11.505             
H              22.84               20.627              -9.574              
H              24.063              21.672              -9.293              
H              22.713              23.376              -9.027              
H              21.63               22.8                -10.105             
H              21.67               22.199              -8.587              
N              22.707              20.064              -16.75              
C              23.025              20.355              -18.172             
C              21.827              20.132              -19.1               
O              21.737              20.688              -20.191             
C              24.162              19.466              -18.751             
O              23.652              18.181              -19.174             
H              23.099              19.249              -16.244             
H              23.288              21.328              -18.23              
H              24.555              19.925              -19.535             
H              24.84               19.321              -18.045             
H              23.916              17.496              -18.503             
N              20.961              19.196              -18.698             
C              19.739              18.793              -19.453             
C              19.94               17.433              -20.136             
O              19.032              16.825              -20.685             
H              21.212              18.749              -17.779             
H              18.969              18.737              -18.815             
H              19.542              19.49               -20.145             
N              21.154              16.918              -20.078             
C              21.531              15.64               -20.669             
C              20.65               14.485              -20.2               
O              20.28               13.603              -20.966             
C              23                  15.336              -20.32              
C              23.551              14.349              -21.349             
C              24.86               13.811              -20.84              
O              25.879              14.484              -20.99              
O              24.84               12.714              -20.266             
H              21.848              17.521              -19.556             
H              21.482              15.707              -21.681             
H              23.497              16.154              -20.4               
H              23.017              14.908              -19.461             
H              22.928              13.614              -21.423             
H              23.719              14.831              -22.169             
N              20.331              14.439              -18.923             
C              19.455              13.397              -18.388             
C              18.246              13.967              -17.647             
O              18.248              15.119              -17.178             
C              20.217              12.506              -17.392             
C              21.378              11.721              -17.975             
C              20.907              10.581              -18.906             
O              19.761              10.09               -18.8               
O              21.727              10.133              -19.689             
H              20.744              15.189              -18.335             
H              19.134              12.805              -19.145             
H              20.577              13.096              -16.684             
H              19.57               11.857              -17.021             
H              21.926              12.323              -18.518             
H              21.877              11.302              -17.245             
N              17.184              13.184              -17.568             
C              15.97               13.555              -16.831             
C              16.027              12.862              -15.43              
O              16.217              11.648              -15.298             
C              14.769              13.099              -17.686             
C              13.432              13.186              -17.005             
O              13.324              12.791              -15.858             
O              12.449              13.59               -17.609             
H              17.276              12.272              -18.075             
H              16.007              14.53               -16.659             
H              14.756              13.672              -18.51              
H              14.94               12.148              -17.956             
N              15.719              13.611              -14.351             
C              15.738              13.11               -12.96              
C              14.921              11.856              -12.769             
O              15.43               10.835              -12.312             
C              15.212              14.218              -11.964             
C              15.19               13.734              -10.583             
C              14.003              13.214              -10.053             
C              16.37               13.758              -9.816              
C              14.009              12.701              -8.751              
C              16.351              13.238              -8.498              
C              15.177              12.716              -7.967              
H              15.459              14.6                -14.588             
H              16.704              12.876              -12.758             
H              15.832              14.971              -12.047             
H              14.304              14.436              -12.259             
H              13.179              13.206              -10.583             
H              17.2                14.13               -10.187             
H              13.156              12.315              -8.37               
H              17.203              13.256              -7.955              
H              15.152              12.353              -7.043              
N              13.625              11.89               -13.089             
C              12.75               10.692              -12.954             
C              11.32               11.077              -13.322             
C              10.838              12.159              -12.343             
C              9.443               12.633              -12.695             
O              9.153               12.724              -13.903             
O              8.649               12.867              -11.79              
H              13.278              12.8                -13.434             
H              12.711              10.426              -11.972             
H              11.328              11.466              -14.201             
H              10.758              10.308              -13.201             
H              10.807              11.765              -11.452             
H              11.442              12.921              -12.414             
H              13.066              9.82092             -13.5551            
H              30.4748             0.157376            -4.33523            
