301
5.xyz
C              9.185               23.075              -6.438              
O              9.612               24.129              -6.901              
N              9.503               21.975              -7.084              
C              10.327              22.012              -8.316              
C              11.857              22.113              -8.088              
O              12.623              22.062              -9.049              
H              9.144               21.093              -6.68               
H              10.134              21.175              -8.866              
H              10.03               22.803              -8.887              
N              12.357              22.317              -6.867              
C              13.834              22.416              -6.577              
C              14.516              21.053              -6.282              
O              13.924              20.141              -5.695              
C              14.051              23.399              -5.354              
C              15.559              23.661              -5.004              
C              15.786              24.588              -3.789              
O              14.859              25.037              -3.102              
O              16.955              24.843              -3.494              
H              11.646              22.405              -6.111              
H              14.289              22.853              -7.369              
H              13.658              24.255              -5.6                
H              13.64               22.985              -4.575              
H              15.967              22.792              -4.795              
H              15.973              24.09               -5.785              
N              15.715              20.896              -6.811              
C              16.517              19.675              -6.604              
C              17.611              19.848              -5.548              
O              18.279              20.877              -5.541              
C              17.217              19.274              -7.856              
C              17.692              17.831              -7.744              
S              18.287              17.371              -9.347              
C              19.822              18.343              -9.473              
H              16.053              21.697              -7.385              
H              15.89               18.945              -6.288              
H              16.598              19.335              -8.633              
H              18.015              19.85               -8.006              
H              18.415              17.783              -7.053              
H              16.922              17.259              -7.457              
H              19.935              18.874              -8.638              
H              20.589              17.718              -9.588              
H              19.753              18.951              -10.259             
N              17.778              18.893              -4.654              
C              18.829              19.036              -3.625              
C              20.172              18.665              -4.212              
O              20.265              18.298              -5.38               
C              18.591              18.115              -2.407              
O              18.873              16.754              -2.793              
H              17.157              18.086              -4.722              
H              18.855              19.999              -3.353              
H              19.205              18.374              -1.686              
H              17.649              18.179              -2.139              
H              18.98               16.203              -1.971              
N              21.27               18.866              -3.484              
C              22.603              18.431              -3.944              
C              22.795              17.065              -3.196              
O              21.804              16.453              -2.769              
H              21.114              19.347              -2.579              
H              22.593              18.266              -4.897              
H              23.282              19.049              -3.642              
N              24.011              16.534              -2.96               
C              24.105              15.265              -2.196              
C              23.472              15.27               -0.792              
O              23.632              16.214              -0.035              
C              25.577              14.956              -2.124              
C              26.188              15.833              -3.199              
C              25.329              17.09               -3.227              
H              23.719              14.494              -2.754              
H              25.961              15.192              -1.23               
H              25.763              13.993              -2.32               
H              27.135              16.056              -2.968              
H              26.162              15.366              -4.083              
H              25.607              17.723              -2.516              
H              25.367              17.524              -4.119              
N              22.654              14.291              -0.437              
C              22.056              14.182              0.911               
C              22.403              12.805              1.501               
O              22.145              11.732              0.945               
C              20.525              14.367              0.862               
C              19.822              13.939              2.183               
C              20.275              15.865              0.615               
H              22.459              13.591              -1.19               
H              22.471              14.878              1.489               
H              20.162              13.767              0.148               
H              18.869              14.22               2.14                
H              19.887              12.951              2.271               
H              20.28               14.385              2.945               
H              20.81               16.154              -0.175              
H              19.303              16.004              0.441               
H              20.555              16.376              1.424               
N              23.06               12.808              2.648               
C              23.453              11.522              3.287               
C              22.548              11.016              4.39                
O              22.074              11.775              5.246               
C              24.862              11.592              3.905               
C              25.877              11.735              2.88                
C              26.048              12.973              2.246               
C              26.666              10.633              2.545               
C              27.007              13.122              1.251               
C              27.631              10.791              1.546               
C              27.799              12.031              0.91                
H              23.272              13.723              3.052               
H              23.438              10.823              2.537               
H              24.874              12.376              4.497               
H              24.999              10.751              4.395               
H              25.485              13.743              2.509               
H              26.548              9.772               2.998               
H              27.12               14.002              0.791               
H              28.209              10.004              1.281               
H              28.501              12.13               0.2                 
N              22.238              9.728               4.343               
C              21.418              9.057               5.375               
C              22.041              7.68                5.583               
O              22.875              7.256               4.774               
C              19.937              8.759               5.005               
O              19.881              7.694               4.027               
C              19.229              10.037              4.5                 
H              22.619              9.217               3.515               
H              21.493              9.57                6.214               
H              19.45               8.445               5.842               
H              19.917              10.718              4.254               
H              18.676              9.811               3.7                 
H              18.643              10.395              5.225               
H              20.665              7.758               3.405               
N              21.649              6.925               6.61                
C              22.231              5.576               6.792               
C              21.964              4.672               5.577               
O              22.697              3.752               5.232               
C              21.654              4.953               8.09                
C              22.04               5.818               9.292               
O              23.11               6.411               9.329               
O              21.255              5.879               10.211              
H              20.95               7.333               7.23                
H              23.228              5.695               6.857               
H              20.68               4.938               8.009               
H              22.047              4.065               8.198               
N              20.863              4.918               4.896               
C              20.525              4.125               3.672               
C              21.492              4.368               2.513               
O              21.745              3.494               1.679               
C              19.111              4.457               3.18                
O              18.184              4.164               4.217               
H              20.263              5.673               5.25                
H              20.577              3.149               3.928               
H              19.065              5.418               2.966               
H              18.907              3.896               2.395               
H              18.568              3.463               4.816               
N              22.104              5.528               2.429               
C              23.023              5.842               1.31                
C              23.037              7.34                0.925               
O              22.802              8.243               1.766               
H              21.902              6.201               3.19                
H              23.962              5.561               1.565               
H              22.754              5.298               0.5                 
N              23.371              7.628               -0.349              
C              23.433              9.045               -0.789              
C              22.21               9.334               -1.648              
O              21.804              8.539               -2.469              
C              24.742              9.302               -1.574              
C              25.911              8.681               -0.787              
C              24.973              10.819              -1.773              
C              27.274              8.815               -1.397              
H              23.566              6.832               -0.95               
H              23.344              9.588               0.038               
H              24.675              8.836               -2.439              
H              25.916              9.098               0.134               
H              25.703              7.699               -0.66               
H              25.818              10.951              -2.28               
H              24.207              11.196              -2.282              
H              25.037              11.254              -0.881              
H              27.503              9.784               -1.503              
H              27.954              8.379               -0.805              
H              27.287              8.373               -2.295              
N              21.591              10.463              -1.404              
C              20.377              10.908              -2.07               
C              20.469              12.22               -2.845              
O              21.336              13.063              -2.6                
C              19.252              11.124              -1.063              
C              18.983              10.032              -0.128              
H              22.062              11.052              -0.653              
H              20.089              10.174              -2.732              
H              19.461              11.971              -0.527              
H              18.394              11.329              -1.583              
N              17.814              9.333               -0.115              
C              19.777              9.569               0.931               
C              17.88               8.44                0.93                
N              19.083              8.599               1.547               
H              17.048              9.421               -0.72               
H              20.678              9.922               1.149               
H              17.181              7.807               1.18                
N              19.581              12.29               -3.846              
C              19.335              13.483              -4.7                
C              17.834              13.543              -4.559              
O              17.094              12.569              -4.744              
C              19.669              13.354              -6.232              
C              21.153              13.215              -6.513              
C              19.324              14.701              -6.91               
C              21.536              12.784              -7.947              
H              19.042              11.39               -3.991              
H              19.697              14.228              -4.208              
H              19.199              12.53               -6.562              
H              21.607              14.094              -6.326              
H              21.542              12.535              -5.879              
H              19.533              14.635              -7.88               
H              18.356              14.887              -6.78               
H              19.869              15.42               -6.492              
H              21.188              13.463              -8.584              
H              22.526              12.729              -8.005              
H              21.128              11.897              -8.129              
N              17.344              14.641              -4.038              
C              15.898              14.814              -3.774              
C              15.209              15.839              -4.687              
O              15.76               16.895              -4.973              
C              15.716              15.258              -2.266              
C              16.478              14.269              -1.346              
C              14.208              15.326              -1.869              
C              16.493              14.787              0.108               
H              18.04               15.385              -3.822              
H              15.471              13.917              -3.974              
H              16.127              16.146              -2.172              
H              16.021              13.404              -1.369              
H              17.403              14.201              -1.663              
H              14.144              15.635              -0.928              
H              13.752              15.965              -2.475              
H              13.817              14.419              -1.964              
H              15.554              14.875              0.422               
H              16.987              14.134              0.671               
H              16.947              15.671              0.124               
N              14.004              15.562              -5.161              
C              13.303              16.551              -6                  
C              11.964              16.847              -5.353              
O              11.157              15.927              -5.213              
C              13.097              16.002              -7.457              
C              12.044              16.815              -8.264              
C              12.622              18.121              -8.866              
C              11.515              15.864              -9.366              
H              13.616              14.65               -4.911              
H              13.845              17.384              -6.019              
H              13.95               16.079              -7.923              
H              12.771              15.087              -7.383              
H              11.283              17.047              -7.653              
H              13.37               17.887              -9.481              
H              11.9                18.59               -9.366              
H              12.955              18.696              -8.124              
H              11.104              15.067              -8.932              
H              10.834              16.349              -9.909              
H              12.278              15.585              -9.943              
N              11.737              18.055              -4.846              
C              10.426              18.285              -4.25               
C              9.361               18.561              -5.316              
O              9.502               19.41               -6.194              
C              10.472              19.458              -3.235              
C              9.119               19.668              -2.483              
C              9.178               20.76               -1.391              
N              7.814               21.184              -1.09               
C              7.464               22.331              -0.479              
N              8.359               23.246              -0.096              
N              6.163               22.537              -0.193              
H              12.481              18.728              -4.907              
H              10.153              17.462              -3.733              
H              11.159              19.258              -2.558              
H              10.669              20.288              -3.726              
H              8.421               19.932              -3.147              
H              8.859               18.808              -2.046              
H              9.589               20.363              -0.596              
H              9.692               21.512              -1.752              
H              7.057               20.564              -1.362              
H              9.329               23.08               -0.289              
H              8.066               24.071              0.368               
H              5.486               21.856              -0.452              
H              5.891               23.373              0.276               
N              8.307               17.756              -5.354              
C              7.222               17.983              -6.343              
C              6.049               18.747              -5.768              
O              5.462               19.591              -6.417              
C              6.752               16.642              -6.916              
O              6.222               15.833              -5.875              
C              7.93                15.972              -7.641              
H              8.297               16.99               -4.672              
H              7.616               18.515              -7.11               
H              6.009               16.817              -7.598              
H              8.367               16.635              -8.249              
H              8.594               15.648              -6.967              
H              7.593               15.198              -8.177              
H              6.677               16.037              -5                  
N              5.652               18.51               -4.522              
C              4.536               19.241              -3.865              
C              4.847               19.727              -2.431              
O              5.753               19.208              -1.814              
C              3.24                18.397              -3.801              
C              2.785               17.922              -5.174              
C              1.669               16.86               -5.069              
O              0.996               16.765              -4.024              
O              1.479               16.128              -6.052              
O              4.161               20.604              -1.911              
H              6.189               17.761              -4.029              
H              4.283               20.041              -4.439              
H              3.432               17.609              -3.257              
H              2.539               18.965              -3.431              
H              2.412               18.68               -5.661              
H              3.538               17.499              -5.627              
H              8.6315              23.0136             -5.51456            
