363
3.xyz
C              13.264              9.551               -13.9               
O              13.094              8.402               -13.456             
N              13.814              9.76                -15.09              
C              14.304              8.623               -15.862             
C              15.532              7.995               -15.219             
O              15.688              6.773               -15.22              
C              14.636              9.035               -17.3               
O              13.652              9.929               -17.792             
H              13.861              10.734              -15.399             
H              13.575              7.925               -15.886             
H              15.519              9.487               -17.307             
H              14.651              8.223               -17.869             
H              13.556              10.698              -17.161             
N              16.413              8.833               -14.679             
C              17.604              8.309               -14.009             
C              17.219              7.449               -12.813             
O              17.753              6.361               -12.579             
C              18.515              9.465               -13.581             
C              19.459              10.013              -14.645             
C              20.294              11.162              -14.088             
C              20.363              8.918               -15.189             
H              16.194              9.831               -14.769             
H              18.112              7.738               -14.663             
H              17.93               10.217              -13.283             
H              19.073              9.145               -12.82              
H              18.922              10.343              -15.422             
H              20.835              10.835              -13.314             
H              20.905              11.505              -14.801             
H              19.688              11.897              -13.785             
H              19.805              8.195               -15.598             
H              20.972              9.301               -15.884             
H              20.91               8.534               -14.444             
N              16.255              7.944               -12.023             
C              15.883              7.225               -10.812             
C              15.213              5.888               -11.136             
O              15.479              4.888               -10.465             
C              14.99               8.075               -9.929              
H              15.834              8.82                -12.335             
H              16.716              7.041               -10.272             
H              14.389              8.637               -10.499             
H              14.433              7.484               -9.345              
H              15.553              8.671               -9.355              
N              14.361              5.862               -12.159             
C              13.691              4.612               -12.52              
C              14.682              3.563               -12.979             
O              14.408              2.364               -12.876             
C              12.621              4.85                -13.598             
O              13.203              5.267               -14.81              
H              14.223              6.752               -12.648             
H              13.223              4.264               -11.696             
H              12.126              3.998               -13.745             
H              11.997              5.555               -13.271             
H              14.05               5.767               -14.624             
N              15.835              3.969               -13.493             
C              16.805              2.979               -13.937             
C              17.865              2.656               -12.884             
O              18.3                1.507               -12.769             
C              17.529              3.456               -15.201             
C              16.693              4.287               -16.159             
C              17.541              4.864               -17.279             
H              15.972              4.981               -13.546             
H              16.304              2.119               -14.139             
H              18.326              4.007               -14.924             
H              17.865              2.647               -15.701             
H              15.991              3.708               -16.559             
H              16.277              5.037               -15.656             
O              17.035              5.515               -18.191             
N              18.845              4.621               -17.221             
H              19.473              4.963               -17.943             
H              19.21               4.083               -16.436             
N              18.317              3.669               -12.132             
C              19.508              3.392               -11.327             
C              19.306              3.563               -9.832              
O              20.26               3.289               -9.086              
C              20.654              4.324               -11.74              
C              20.966              4.295               -13.222             
C              21.456              3.143               -13.81              
C              20.755              5.424               -13.994             
C              21.746              3.132               -15.162             
C              21.043              5.413               -15.346             
C              21.531              4.262               -15.934             
H              17.818              4.531               -12.171             
H              19.743              2.413               -11.483             
H              20.395              5.247               -11.504             
H              21.466              4.04                -11.255             
H              21.599              2.326               -13.268             
H              20.391              6.254               -13.57              
H              22.118              2.292               -15.584             
H              20.896              6.25                -15.899             
H              21.73               4.239               -16.914             
N              18.135              4.018               -9.4                
C              17.936              4.175               -7.961              
C              17.904              2.808               -7.271              
O              17.239              1.872               -7.721              
C              16.668              4.958               -7.642              
O              16.573              5.156               -6.232              
H              17.44               4.232               -10.11              
H              18.716              4.687               -7.591              
H              16.71               5.84                -8.086              
H              15.882              4.44                -7.945              
H              15.653              5.468               -6.006              
N              18.643              2.723               -6.167              
C              18.693              1.505               -5.364              
C              17.536              1.455               -4.386              
O              17.485              0.609               -3.5                
C              19.998              1.404               -4.562              
C              21.168              0.971               -5.401              
O              21.066              -0.048              -6.116              
O              22.209              1.668               -5.356              
H              19.173              3.586               -5.931              
H              18.583              0.729               -5.996              
H              20.186              2.303               -4.178              
H              19.854              0.742               -3.834              
N              16.597              2.388               -4.524              
C              15.396              2.351               -3.702              
C              14.293              1.694               -4.532              
O              14.265              1.913               -5.746              
C              14.969              3.742               -3.25               
S              13.417              3.823               -2.341              
H              16.79               3.107               -5.235              
H              15.569              1.777               -2.911              
H              15.698              4.116               -2.667              
H              14.887              4.322               -4.069              
H              13.499              3.305               -1.488              
N              13.399              0.928               -3.934              
C              12.342              0.283               -4.708              
C              11.383              1.301               -5.308              
O              10.593              0.978               -6.201              
C              11.589              -0.708              -3.823              
O              10.812              -0.005              -2.874              
H              13.506              0.827               -2.914              
H              12.776              -0.221              -5.468              
H              10.991              -1.256              -4.392              
H              12.247              -1.277              -3.348              
H              11.208              0.9                 -2.721              
N              11.446              2.554               -4.852              
C              10.646              3.619               -5.451              
C              11.043              3.887               -6.897              
O              10.345              4.613               -7.618              
C              10.76               4.887               -4.601              
O              12.101              5.348               -4.552              
H              12.094              2.698               -4.059              
H              9.679               3.324               -5.444              
H              10.188              5.595               -5.003              
H              10.455              4.681               -3.676              
H              12.717              4.605               -4.808              
N              12.132              3.309               -7.394              
C              12.499              3.407               -8.791              
C              11.352              2.944               -9.704              
O              11.236              3.381               -10.855             
C              13.728              2.579               -9.103              
H              12.696              2.78                -6.688              
H              12.707              4.369               -9.014              
H              13.956              2.665               -10.074             
H              14.501              2.901               -8.554              
H              13.551              1.617               -8.89               
N              10.522              2.05                -9.197              
C              9.411               1.532               -9.997              
C              8.346               2.614               -10.152             
O              7.459               2.517               -11.003             
C              8.823               0.274               -9.37               
C              8.16                0.486               -8.02               
C              7.827               -0.869              -7.4                
C              8.211               -1.988              -8.363              
N              8.683               -3.209              -7.657              
H              10.714              1.758               -8.228              
H              9.753               1.283               -10.904             
H              8.139               -0.1                -9.999              
H              9.562               -0.394              -9.255              
H              8.784               0.968               -7.419              
H              7.32                0.997               -8.142              
H              8.346               -0.976              -6.567              
H              6.856               -0.915              -7.233              
H              7.409               -2.22               -8.925              
H              8.94                -1.655              -8.971              
H              9.149               -2.945              -6.813              
H              7.899               -3.79               -7.439              
H              9.317               -3.709              -8.246              
N              8.462               3.642               -9.316              
C              7.524               4.756               -9.328              
C              8.191               5.987               -9.924              
O              7.709               7.094               -9.709              
C              7.019               5.063               -7.931              
H              9.27                3.58                -8.663              
H              6.735               4.511               -9.897              
H              6.488               4.288               -7.587              
H              7.795               5.229               -7.321              
H              6.437               5.877               -7.954              
N              9.28                5.725               -10.633             
C              10.158              6.733               -11.193             
C              10.64               7.643               -10.067             
O              10.806              8.85                -10.209             
C              9.47                7.534               -12.31              
C              9.016               6.606               -13.444             
C              8.21                7.368               -14.475             
N              8.941               8.423               -15.155             
C              9.945               8.25                -16.003             
N              10.53               9.3                 -16.565             
N              10.384              7.032               -16.307             
H              9.458               4.687               -10.759             
H              10.952              6.288               -11.604             
H              8.676               7.97                -11.937             
H              10.116              8.172               -12.679             
H              9.816               6.221               -13.888             
H              8.446               5.886               -13.066             
H              7.875               6.705               -15.158             
H              7.41                7.768               -14.008             
H              8.658               9.385               -14.964             
H              10.244              10.229              -16.348             
H              11.28               9.157               -17.224             
H              9.951               6.239               -15.864             
H              11.123              6.908               -16.955             
N              10.866              7.038               -8.897              
C              11.471              7.811               -7.814              
C              10.482              8.379               -6.831              
O              10.855              8.836               -5.741              
H              10.597              6.061               -8.836              
H              12.139              7.215               -7.319              
H              12.021              8.571               -8.221              
N              9.185               8.371               -7.151              
C              8.232               9.043               -6.27               
C              8.037               8.307               -4.953              
O              7.784               7.104               -5.018              
C              6.881               9.17                -6.982              
C              5.809               9.838               -6.156              
O              6.067               10.851              -5.482              
O              4.652               9.361               -6.171              
H              8.939               7.884               -8.011              
H              8.622               9.951               -6.048              
H              7.026               9.703               -7.816              
H              6.577               8.249               -7.224              
N              8.137               9.016               -3.831              
C              7.904               8.421               -2.52               
C              6.512               8.74                -2                  
O              6.082               8.244               -0.967              
C              8.921               8.938               -1.479              
C              10.375              8.537               -1.746              
C              11.34               9.481               -1.041              
C              10.618              7.094               -1.325              
H              8.392               10.015              -3.97               
H              7.992               7.419               -2.603              
H              8.877               9.926               -1.482              
H              8.664               8.569               -0.599              
H              10.543              8.566               -2.732              
H              11.175              9.451               -0.055              
H              12.281              9.199               -1.23               
H              11.198              10.413              -1.374              
H              10.014              6.488               -1.844              
H              11.571              6.849               -1.506              
H              10.429              6.995               -0.348              
N              5.791               9.61                -2.707              
C              4.519               10.074              -2.176              
C              4.763               11.136              -1.111              
O              5.87                11.666              -0.965              
H              6.192               9.901               -3.6                
H              3.967               10.466              -2.915              
H              4.022               9.305               -1.769              
N              3.733               11.453              -0.351              
C              3.775               12.507              0.655               
C              4.212               11.991              2.018               
O              3.931               10.859              2.406               
C              2.397               13.161              0.787               
H              2.871               10.879              -0.531              
H              4.433               13.217              0.353               
H              1.736               12.651              0.24                
H              2.118               13.152              1.745               
H              2.447               14.103              0.461               
N              4.907               12.83               2.785               
C              5.311               12.386              4.118               
C              5.408               13.607              5.03                
O              5.643               14.698              4.51                
C              6.633               11.636              4.073               
C              7.784               12.328              3.365               
C              7.969               12.185              1.996               
C              8.682               13.107              4.073               
C              9.024               12.811              1.359               
C              9.736               13.742              3.449               
C              9.915               13.586              2.085               
H              5.115               13.741              2.387               
H              4.572               11.819              4.474               
H              6.925               11.464              5.014               
H              6.48                10.765              3.607               
H              7.336               11.628              1.467               
H              8.562               13.213              5.068               
H              9.142               12.699              0.363               
H              10.372              14.315              3.987               
H              10.682              14.029              1.622               
N              5.222               13.378              6.323               
C              5.327               14.43               7.325               
C              6.693               14.362              8.015               
O              7.47                13.438              7.737               
C              4.219               14.309              8.373               
O              4.295               13.053              9.034               
H              4.996               12.386              6.559               
H              5.264               15.316              6.86                
H              4.329               15.033              9.043               
H              3.339               14.382              7.92                
H              5.038               13.074              9.7                 
N              6.976               15.315              8.906               
C              8.21                15.193              9.695               
C              8.068               14.035              10.669              
O              6.944               13.69               11.04               
C              8.501               16.503              10.422              
C              9.185               17.537              9.529               
C              9.389               18.829              10.29               
N              10.075              19.871              9.565               
C              11.319              19.969              9.157               
N              12.198              19.005              9.381               
N              11.707              21.059              8.499               
H              6.311               16.076              8.984               
H              8.969               15.004              9.073               
H              7.643               16.888              10.733              
H              9.103               16.313              11.185              
H              10.07               17.192              9.248               
H              8.61                17.721              8.743               
H              8.477               19.165              10.575              
H              9.908               18.61               11.132              
H              9.47                20.709              9.315               
H              11.921              18.167              9.853               
H              13.148              19.111              9.076               
H              11.049              21.786              8.302               
H              12.657              21.151              8.201               
N              9.167               13.411              11.077              
C              9.07                12.306              12.011              
C              8.945               10.937              11.384              
O              8.838               9.939               12.108              
H              10.05               13.768              10.687              
H              9.892               12.318              12.628              
H              8.267               12.464              12.633              
N              8.947               10.812              10.059              
C              8.805               9.506               9.424               
C              10.076              9.042               8.732               
O              10.433              7.858               8.784               
C              7.665               9.543               8.397               
C              6.506               10.425              8.835               
C              5.885               9.969               10.14               
H              9.055               11.697              9.535               
H              8.583               8.832               10.149              
H              8.021               9.898               7.538               
H              7.321               8.616               8.268               
H              6.841               11.36               8.951               
H              5.804               10.408              8.123               
O              5.613               8.782               10.32               
N              5.657               10.909              11.053              
H              5.231               10.679              11.945              
H              5.92                11.871              10.841              
N              10.77               9.962               8.059               
C              11.987              9.59                7.349               
C              12.141              10.415              6.065               
C              10.892              10.506              5.209               
S              10.415              8.89                4.565               
C              11.091              9.018               2.912               
H              10.383              10.914              8.087               
H              11.935              8.609               7.123               
H              12.427              11.354              6.316               
H              12.883              10.01               5.507               
H              10.139              10.908              5.769               
H              11.063              11.162              4.446               
H              11.1                9.977               2.626               
H              12.026              8.661               2.903               
H              10.528              8.488               2.276               
H              12.9869             10.3802             -13.3018            
H              12.8811             9.74296             7.97161             
