189
4.xyz
C              1.087               25.68               15.356              
O              -0.151              25.832              15.648              
N              1.516               25.071              14.296              
C              0.612               24.181              13.488              
C              0.225               22.887              14.227              
O              0.772               22.439              15.243              
C              1.217               23.846              12.178              
C              0.526               23.772              10.874              
C              1.384               24.385              9.79                
N              1.681               25.758              10.203              
C              2.434               26.541              9.414               
N              2.84                26.141              8.217               
N              3.163               27.51               10.016              
H              2.502               25.224              14.033              
H              -0.227              24.701              13.281              
H              2.045               24.501              12.044              
H              1.728               22.921              12.301              
H              0.351               22.823              10.624              
H              -0.333              24.278              10.904              
H              2.216               23.877              9.725               
H              0.872               24.399              8.957               
H              1.336               26.102              11.044              
H              2.567               25.24               7.874               
H              3.415               26.735              7.656               
H              3.119               27.639              10.996              
H              3.748               28.095              9.451               
N              -0.797              22.158              13.729              
C              -1.16               20.921              14.466              
C              -0.602              19.752              13.626              
O              -0.526              19.959              12.434              
C              -2.683              20.703              14.758              
O              -3.113              21.761              15.66               
C              -2.948              19.337              15.488              
H              -1.241              22.494              12.903              
H              -0.699              20.928              15.333              
H              -3.193              20.8                13.894              
H              -2.456              19.341              16.352              
H              -3.926              19.248              15.646              
H              -2.622              18.6                14.906              
H              -2.544              22.574              15.524              
N              -0.166              18.698              14.296              
C              0.451               17.549              13.604              
C              -0.644              16.738              12.944              
O              -1.806              16.671              13.4                
C              1.226               16.698              14.63               
S              2.715               17.425              15.373              
H              -0.288              18.739              15.322              
H              1.055               17.907              12.897              
H              0.584               16.461              15.375              
H              1.491               15.836              14.17               
N              -0.285              16.216              11.783              
C              -1.258              15.294              11.11               
C              -0.975              13.947              11.774              
O              0.176               13.664              12.191              
C              -1.156              15.312              9.613               
C              -1.701              14.13               8.799               
C              -1.143              14.208              7.403               
H              0.613               16.459              11.41               
H              -2.153              15.581              11.364              
H              -1.624              16.156              9.255               
H              -0.168              15.422              9.345               
H              -1.402              13.296              9.224               
H              -2.681              14.202              8.765               
O              -0.913              15.295              6.839               
N              -0.837              13.046              6.831               
H              -0.466              13.014              5.879               
H              -0.977              12.187              7.356               
N              -2.004              13.121              11.894              
C              -1.864              11.751              12.403              
C              -1.071              10.913              11.401              
O              -1.206              10.994              10.181              
C              -3.279              11.181              12.52               
O              -3.738              11.729              13.713              
H              -2.922              13.521              11.598              
H              -1.342              11.789              13.255              
H              -3.806              11.504              11.775              
H              -3.219              10.218              12.592              
H              -3.033              12.318              14.117              
N              -0.117              10.129              11.987              
C              0.724               9.274               11.083              
C              -0.042              8.289               10.233              
O              0.351               7.972               9.117               
C              1.621               8.521               12.083              
C              2.454               9.47                12.875              
C              2.231               9.858               14.149              
C              3.64                10.134              12.396              
N              3.293               10.675              14.539              
C              4.12                10.879              13.47               
C              4.287               10.19               11.157              
C              5.21                11.731              13.352              
C              5.437               11.007              11.075              
C              5.85                11.815              12.137              
H              -0.039              10.173              12.977              
H              1.218               9.917               10.463              
H              1.048               8.027               12.709              
H              2.227               7.933               11.582              
H              1.466               9.621               14.719              
H              3.418               11.046              15.456              
H              3.974               9.694               10.374              
H              5.518               12.274              14.148              
H              5.958               10.994              10.223              
H              6.603               12.445              12.01               
N              -1.158              7.73                10.786              
C              -2.024              6.826               10.024              
C              -2.793              7.55                8.942               
O              -3.188              6.882               7.948               
C              -2.954              5.988               10.908              
O              -3.787              6.831               11.642              
H              -1.323              8.003               11.768              
H              -1.432              6.134               9.583               
H              -3.5                5.402               10.322              
H              -2.396              5.447               11.525              
H              -4.124              7.575               11.06               
N              -2.926              8.885               9.063               
C              -3.585              9.684               8.028               
C              -2.703              10.048              6.827               
O              -1.527              10.444              6.876               
C              -4.16               11.004              8.569               
O              -5.087              11.553              7.649               
H              -2.53               9.28                9.932               
H              -4.377              9.144               7.674               
H              -4.621              10.82               9.428               
H              -3.413              11.644              8.701               
H              -5.883              10.953              7.58                
N              -3.369              9.95                5.663               
C              -2.9                10.26               4.335               
C              -3.37               11.675              3.98                
O              -3.131              12.1                2.856               
C              -3.337              9.273               3.23                
C              -2.642              7.944               3.321               
S              -0.81               8.095               3.2                 
C              -0.274              7.855               4.843               
H              -4.379              9.585               5.828               
H              -1.903              10.265              4.336               
H              -4.329              9.133               3.306               
H              -3.138              9.69                2.338               
H              -2.89               7.488               4.202               
H              -2.983              7.327               2.58                
H              0.379               7.087               4.899               
H              0.185               8.682               5.195               
H              -1.054              7.648               5.448               
N              -4.059              12.34               4.851               
C              -4.532              13.729              4.612               
C              -4.185              14.748              5.686               
O              -4.318              14.594              6.911               
C              -6.105              13.796              4.351               
O              -6.546              12.479              3.953               
C              -6.429              14.885              3.322               
H              -4.268              11.84               5.746               
H              -4.124              14.041              3.724               
H              -6.549              14.039              5.221               
H              -5.612              15.089              2.782               
H              -7.158              14.566              2.715               
H              -6.73               15.714              3.796               
H              -6.18               11.789              4.583               
N              -3.779              15.957              5.28                
C              -3.664              16.448              3.947               
C              -2.45               15.98               3.176               
O              -2.492              16.117              1.944               
C              -3.609              17.987              4.108               
C              -3.2                18.262              5.522               
C              -3.523              16.991              6.308               
H              -4.522              16.245              3.405               
H              -2.944              18.38               3.457               
H              -4.513              18.39               3.908               
H              -2.218              18.464              5.576               
H              -3.712              19.041              5.895               
H              -2.751              16.725              6.891               
H              -4.334              17.124              6.885               
N              -1.436              15.498              3.932               
H              -1.574              15.482              4.918               
C              7.378               15.753              13.69               
O              7.09                14.68               14.234              
N              6.636               16.336              12.765              
C              5.424               15.696              12.248              
C              5.014               16.283              10.912              
O              5.446               17.379              10.513              
C              4.223               15.882              13.193              
S              3.82                17.666              13.621              
H              6.973               17.261              12.442              
H              5.621               14.716              12.117              
H              3.413               15.5                12.764              
H              4.414               15.417              14.051              
N              4.146               15.555              10.23               
H              3.963               14.618              10.572              
H              -0.611673           15.1899             3.42963             
H              3.7158              15.9692             9.41192             
H              8.26933             16.273              13.942              
H              1.77801             26.244              15.9402             
