339
0.xyz
N              41.773              -44.114             -18.027             
C              41.476              -44.426             -16.658             
C              39.987              -44.249             -16.35              
O              39.138              -44.666             -17.082             
C              42.34               -43.569             -15.729             
C              41.994              -42.065             -15.611             
C              41.538              -41.444             -16.926             
H              42.595              -44.607             -18.333             
H              41.702              -45.397             -16.491             
H              42.299              -43.959             -14.793             
H              43.307              -43.629             -16.034             
H              41.262              -41.967             -14.938             
H              42.809              -41.583             -15.292             
H              41.007              -44.376             -18.625             
H              41.937              -43.127             -18.138             
O              42.003              -41.831             -17.997             
N              40.629              -40.487             -16.852             
H              40.289              -40.019             -17.685             
H              40.267              -40.221             -15.934             
N              39.703              -43.64              -15.233             
C              38.306              -43.388             -14.735             
C              37.481              -42.622             -15.729             
O              37.9                -41.598             -16.184             
C              38.233              -42.552             -13.396             
C              36.796              -42.78              -12.736             
C              39.334              -42.992             -12.498             
H              40.535              -43.32              -14.673             
H              37.887              -44.294             -14.584             
H              38.27               -41.605             -13.631             
H              36.938              -43.218             -11.862             
H              36.374              -41.893             -12.631             
H              36.277              -43.356             -13.348             
H              39.867              -42.198             -12.187             
H              38.958              -43.463             -11.693             
H              39.948              -43.623             -12.984             
N              36.25               -43.07              -15.992             
C              35.386              -42.367             -16.944             
C              34.104              -42.018             -16.156             
O              33.623              -42.864             -15.486             
C              35.079              -43.316             -18.09              
C              34.14               -42.697             -19.097             
C              34.723              -41.433             -19.881             
H              35.973              -43.922             -15.485             
H              35.821              -41.52              -17.192             
H              35.928              -43.548             -18.554             
H              34.65               -44.137             -17.724             
H              33.893              -43.371             -19.799             
H              33.303              -42.382             -18.641             
O              35.933              -41.422             -20.344             
N              33.885              -40.372             -19.997             
H              34.201              -39.558             -20.462             
H              32.96               -40.454             -19.601             
N              33.668              -40.753             -16.154             
C              32.33               -40.404             -15.533             
C              31.287              -40.461             -16.653             
O              31.568              -40.037             -17.803             
C              32.419              -38.942             -15.055             
C              33.397              -38.825             -13.878             
C              33.406              -37.318             -13.483             
C              33.009              -39.613             -12.704             
H              34.276              -40.059             -16.584             
H              32.125              -41.095             -14.862             
H              32.769              -38.407             -15.786             
H              31.542              -38.674             -14.741             
H              34.293              -39.08              -14.168             
H              32.483              -37.054             -13.222             
H              34.031              -37.195             -12.719             
H              33.709              -36.787             -14.267             
H              32.952              -40.596             -12.93              
H              33.681              -39.505             -11.957             
H              32.107              -39.322             -12.354             
N              30.121              -41.015             -16.373             
C              29.085              -41.091             -17.431             
C              27.735              -40.575             -16.876             
O              27.235              -41.132             -15.894             
C              28.92               -42.59              -17.888             
C              27.73               -42.637             -18.909             
C              30.203              -43.109             -18.576             
H              29.992              -41.368             -15.427             
H              29.359              -40.487             -18.175             
H              28.637              -43.106             -17.111             
H              28.102              -42.54              -19.824             
H              27.269              -43.51              -18.809             
H              27.112              -41.889             -18.701             
H              30.228              -42.759             -19.508             
H              30.993              -42.784             -18.063             
H              30.181              -44.105             -18.581             
N              27.172              -39.539             -17.498             
C              25.914              -38.968             -17.086             
C              24.765              -39.734             -17.778             
O              24.865              -40.127             -18.95              
C              25.769              -37.487             -17.533             
C              26.9                -36.537             -17.02              
C              28.155              -36.503             -17.929             
O              28.315              -37.377             -18.831             
O              28.919              -35.565             -17.714             
H              27.73               -39.181             -18.312             
H              25.8                -39.043             -16.097             
H              25.801              -37.465             -18.512             
H              24.925              -37.146             -17.172             
H              26.534              -35.628             -16.991             
H              27.185              -36.86              -16.14              
N              23.647              -39.863             -17.105             
C              22.45               -40.323             -17.745             
C              21.224              -39.621             -17.167             
O              21.359              -38.904             -16.239             
C              22.338              -41.818             -17.625             
O              22.071              -42.134             -16.338             
H              23.707              -39.609             -16.097             
H              22.496              -40.092             -18.725             
H              21.602              -42.129             -18.222             
H              23.203              -42.223             -17.912             
H              22.544              -41.508             -15.702             
N              20.054              -39.85              -17.763             
C              18.792              -39.297             -17.244             
C              18.351              -38.02              -17.925             
O              17.288              -37.459             -17.549             
H              20.105              -40.443             -18.613             
H              18.063              -40.004             -17.341             
H              18.897              -39.13              -16.243             
N              19.115              -37.572             -18.927             
C              18.716              -36.389             -19.663             
C              17.506              -36.621             -20.587             
O              17.002              -37.776             -20.674             
H              19.963              -38.119             -19.112             
H              18.487              -35.642             -19.013             
H              19.494              -36.058             -20.228             
N              16.913              -35.553             -21.106             
C              15.722              -35.78              -21.96              
C              15.14               -34.47              -22.388             
O              15.789              -33.416             -22.237             
H              17.302              -34.652             -20.892             
H              16.002              -36.318             -22.76              
H              15.049              -36.308             -21.434             
N              13.923              -34.504             -22.908             
C              13.23               -33.309             -23.383             
C              11.89               -33.368             -22.679             
O              11.143              -34.383             -22.849             
C              13.075              -33.522             -24.909             
C              12.131              -32.549             -25.569             
C              12.373              -30.986             -25.367             
C              12.107              -32.923             -27.154             
H              13.497              -35.46              -22.951             
H              13.717              -32.517             -23.075             
H              13.97               -33.41              -25.311             
H              12.727              -34.435             -25.042             
H              11.164              -32.736             -25.261             
H              13.271              -30.775             -25.724             
H              11.666              -30.508             -25.866             
H              12.318              -30.799             -24.398             
H              11.788              -33.852             -27.219             
H              11.491              -32.287             -27.584             
H              13.03               -32.824             -27.48              
N              11.649              -32.363             -21.834             
C              10.456              -32.403             -20.965             
C              9.759               -31.07              -21.011             
O              10.34               -30.037             -21.345             
C              10.971              -32.756             -19.53              
C              11.853              -31.607             -19.033             
C              9.848               -32.899             -18.557             
H              12.328              -31.6               -21.839             
H              9.84                -33.102             -21.331             
H              11.546              -33.55              -19.613             
H              12.797              -31.924             -18.96              
H              11.802              -30.849             -19.68              
H              11.529              -31.307             -18.138             
H              9.273               -33.684             -18.807             
H              10.21               -33.043             -17.631             
H              9.283               -32.069             -18.559             
N              8.481               -31.094             -20.696             
C              7.694               -29.907             -20.638             
C              8.022               -29.049             -19.403             
O              8.238               -29.562             -18.376             
C              6.243               -30.339             -20.611             
C              5.231               -29.27              -20.53              
C              3.785               -29.785             -20.643             
H              8.105               -32.053             -20.496             
H              7.896               -29.337             -21.452             
H              6.064               -30.896             -21.448             
H              6.116               -30.97              -19.817             
H              5.306               -28.787             -19.65              
H              5.369               -28.605             -21.272             
O              2.848               -29.01              -20.696             
N              3.631               -31.109             -20.682             
H              2.708               -31.516             -20.742             
H              4.46                -31.698             -20.651             
N              8.035               -27.747             -19.56              
C              8.25                -26.835             -18.432             
C              7.356               -27.185             -17.249             
O              6.169               -27.615             -17.424             
C              8.028               -25.367             -18.903             
H              7.883               -27.413             -20.533             
H              9.214               -26.906             -18.141             
H              8.651               -24.776             -18.402             
H              8.213               -25.316             -19.878             
H              7.085               -25.114             -18.716             
N              7.927               -27.026             -16.035             
C              7.259               -27.437             -14.768             
C              7.502               -28.881             -14.411             
O              7.265               -29.272             -13.261             
H              8.87                -26.594             -16.057             
H              7.594               -26.834             -14.024             
H              6.264               -27.266             -14.865             
N              8.031               -29.663             -15.371             
C              8.282               -31.088             -15.194             
C              9.563               -31.277             -14.331             
O              10.131              -30.247             -13.853             
H              8.245               -29.149             -16.259             
H              7.516               -31.517             -14.723             
H              8.427               -31.524             -16.077             
N              10                  -32.513             -14.151             
C              11.288              -32.801             -13.387             
C              12.058              -33.795             -14.231             
O              11.472              -34.532             -15.106             
C              10.95               -33.553             -12.033             
O              10.17               -32.651             -11.209             
H              9.429               -33.267             -14.551             
H              11.784              -31.954             -13.348             
H              10.416              -34.337             -12.248             
H              11.789              -33.756             -11.584             
H              10.65               -32.511             -10.35              
N              13.368              -33.871             -13.938             
C              14.205              -34.955             -14.382             
C              15.138              -35.327             -13.224             
O              15.169              -34.616             -12.2               
C              15.075              -34.473             -15.53              
C              14.325              -34.255             -16.868             
C              15.32               -33.39              -17.79              
C              13.968              -35.588             -17.53              
H              13.713              -33.068             -13.359             
H              13.64               -35.747             -14.589             
H              15.472              -33.601             -15.28              
H              15.775              -35.15              -15.701             
H              13.526              -33.727             -16.721             
H              16.145              -33.92              -17.904             
H              14.861              -33.239             -18.65              
H              15.494              -32.543             -17.315             
H              13.38               -36.114             -16.917             
H              13.487              -35.412             -18.388             
H              14.806              -36.1               -17.714             
N              15.778              -36.483             -13.327             
C              16.814              -36.822             -12.324             
C              18.026              -37.313             -13.074             
O              17.987              -38.373             -13.767             
C              16.292              -37.982             -11.43              
C              17.356              -38.313             -10.274             
C              16.655              -39.492             -9.474              
N              17.43               -40.05              -8.365              
C              17.572              -39.49              -7.145              
N              17.028              -38.296             -6.882              
N              18.302              -40.123             -6.173              
H              15.518              -37.085             -14.103             
H              17.044              -35.996             -11.823             
H              15.479              -37.702             -10.985             
H              16.207              -38.785             -11.965             
H              18.142              -38.655             -10.675             
H              17.419              -37.564             -9.698              
H              15.786              -39.121             -9.133              
H              16.457              -40.209             -10.15              
H              17.904              -40.932             -8.519              
H              16.498              -37.82              -7.576              
H              17.158              -37.884             -5.978              
H              18.698              -41.01              -6.402              
H              18.415              -39.702             -5.297              
N              19.103              -36.515             -13.035             
C              20.339              -36.957             -13.7               
C              21.148              -37.809             -12.747             
O              21.05               -37.638             -11.512             
C              21.25               -35.761             -14.079             
C              20.42               -34.716             -14.817             
C              21.471              -33.649             -15.304             
C              19.655              -35.252             -16.082             
H              18.995              -35.637             -12.538             
H              20.086              -37.509             -14.495             
H              21.573              -35.367             -13.258             
H              21.93               -36.089             -14.68              
H              19.806              -34.281             -14.205             
H              22.121              -34.106             -15.898             
H              20.983              -32.938             -15.795             
H              21.925              -33.277             -14.505             
H              19.036              -35.97              -15.788             
H              19.151              -34.496             -16.482             
H              20.326              -35.606             -16.722             
N              21.884              -38.759             -13.326             
C              22.797              -39.598             -12.523             
C              24.171              -39.591             -13.145             
O              24.296              -39.438             -14.369             
C              22.343              -41.044             -12.49              
O              21                  -41.201             -12.087             
H              21.768              -38.856             -14.342             
H              22.856              -39.189             -11.611             
H              22.452              -41.441             -13.409             
H              22.932              -41.555             -11.853             
H              20.391              -40.939             -12.836             
N              25.188              -39.704             -12.286             
C              26.581              -39.733             -12.815             
C              27.181              -40.964             -12.215             
O              27.33               -41.048             -11.019             
C              27.261              -38.511             -12.289             
S              29.077              -38.488             -12.677             
H              24.952              -39.765             -11.303             
H              26.523              -39.837             -13.79              
H              26.874              -37.702             -12.705             
H              27.183              -38.478             -11.303             
N              27.547              -41.918             -13.033             
C              28.181              -43.138             -12.58              
C              29.659              -43.1               -12.988             
O              30.08               -42.265             -13.822             
C              27.474              -44.334             -13.303             
H              27.343              -41.727             -14.046             
H              28.132              -43.188             -11.584             
H              26.495              -44.174             -13.286             
H              27.805              -44.374             -14.238             
H              27.699              -45.17              -12.817             
N              30.508              -43.849             -12.319             
C              31.926              -43.855             -12.721             
C              32.347              -45.269             -13.056             
O              31.758              -46.226             -12.515             
C              32.757              -43.414             -11.526             
H              30.133              -44.395             -11.545             
H              32.026              -43.28              -13.534             
H              32.21               -42.817             -10.94              
H              33.046              -44.217             -11.005             
H              33.564              -42.917             -11.845             
N              33.393              -45.4               -13.875             
C              33.866              -46.789             -14.276             
C              34.624              -47.512             -13.134             
O              34.811              -48.737             -13.172             
C              34.758              -46.688             -15.516             
O              35.841              -45.817             -15.318             
H              33.836              -44.551             -14.201             
H              33.045              -47.324             -14.494             
H              35.104              -47.602             -15.733             
H              34.202              -46.355             -16.28              
H              36.162              -45.883             -14.372             
N              35.066              -46.754             -12.132             
H              34.866              -45.735             -12.243             
H              29.1677             -37.5166            -13.6853            
H              35.5545             -47.137             -11.3306            
