191
6.xyz
C              33.309              -35.83              -0.555              
C              32.507              -36.654             0.442               
O              32.068              -37.789             0.154               
H              33.146              -36.165             -1.489              
H              34.292              -35.908             -0.355              
N              32.251              -36.077             1.617               
C              31.482              -36.786             2.628               
C              29.955              -36.584             2.596               
O              29.152              -37.064             3.507               
C              32.151              -36.455             4.009               
C              31.877              -35                 4.465               
O              31.275              -34.243             3.713               
O              32.319              -34.588             5.587               
H              32.631              -35.129             1.735               
H              31.643              -37.79              2.483               
H              31.772              -37.071             4.678               
H              33.122              -36.575             3.905               
N              29.502              -35.817             1.6                 
C              28.065              -35.643             1.436               
C              27.471              -34.602             2.394               
O              26.307              -34.233             2.271               
H              30.213              -35.393             1.005               
H              27.865              -35.361             0.482               
H              27.597              -36.531             1.587               
N              28.276              -33.999             3.256               
C              27.673              -33.094             4.295               
C              27.462              -31.682             3.839               
O              26.631              -30.894             4.451               
C              28.598              -33.118             5.548               
C              28.694              -34.512             6.201               
C              27.314              -35.197             6.437               
N              26.287              -34.341             7.094               
C              25.868              -34.476             8.37                
N              26.377              -35.432             9.129               
N              24.959              -33.635             8.877               
H              29.267              -34.176             3.176               
H              26.78               -33.505             4.565               
H              29.503              -32.85              5.263               
H              28.225              -32.493             6.214               
H              29.232              -35.118             5.613               
H              29.142              -34.431             7.092               
H              26.968              -35.491             5.543               
H              27.476              -36.006             7.007               
H              25.876              -33.608             6.543               
H              27.081              -36.048             8.79                
H              26.046              -35.542             10.078              
H              24.613              -32.894             8.296               
H              24.639              -33.745             9.807               
N              28.2                -31.24              2.842               
C              28.078              -29.843             2.467               
C              27.56               -29.833             0.994               
O              28.066              -30.664             0.195               
C              29.46               -29.155             2.48                
C              30.148              -29.065             3.907               
C              31.547              -28.377             3.665               
C              29.3                -28.267             4.821               
H              28.816              -31.913             2.393               
H              27.393              -29.407             3.025               
H              30.074              -29.673             1.911               
H              29.353              -28.23              2.166               
H              30.289              -29.963             4.24                
H              31.384              -27.48              3.275               
H              32.008              -28.304             4.54                
H              32.064              -28.946             3.039               
H              28.392              -28.692             4.925               
H              29.725              -28.201             5.733               
H              29.173              -27.333             4.463               
N              26.602              -28.951             0.717               
C              26.178              -28.73              -0.723              
C              26.073              -27.251             -1.036              
O              25.795              -26.396             -0.109              
C              24.825              -29.413             -0.999              
O              23.845              -28.87              -0.061              
C              24.939              -30.89              -0.841              
H              26.188              -28.454             1.497               
H              26.883              -29.145             -1.301              
H              24.517              -29.179             -1.933              
H              24.335              -31.217             -0.103              
H              24.679              -31.36              -1.694              
H              25.885              -31.152             -0.613              
H              22.921              -29.076             -0.385              
N              26.306              -26.882             -2.312              
C              26.169              -25.49              -2.758              
C              25.479              -25.572             -4.103              
O              25.74               -26.531             -4.878              
C              27.598              -24.854             -3.056              
O              28.308              -24.816             -1.846              
C              27.511              -23.401             -3.63               
H              26.586              -27.659             -2.938              
H              25.582              -25.015             -2.125              
H              28.066              -25.467             -3.71               
H              26.586              -23.245             -3.962              
H              27.73               -22.758             -2.903              
H              28.164              -23.314             -4.376              
H              27.763              -25.209             -1.091              
N              24.622              -24.576             -4.385              
C              23.918              -24.499             -5.686              
C              24.154              -23.154             -6.339              
O              24.313              -22.099             -5.633              
C              22.422              -24.612             -5.381              
C              22.091              -25.961             -4.768              
C              21.829              -27.055             -5.647              
C              22.073              -26.175             -3.399              
C              21.509              -28.351             -5.159              
C              21.767              -27.467             -2.869              
C              21.486              -28.544             -3.748              
O              21.202              -29.771             -3.238              
H              24.498              -23.881             -3.631              
H              24.295              -25.216             -6.279              
H              22.18               -23.91              -4.735              
H              21.923              -24.526             -6.225              
H              21.871              -26.906             -6.631              
H              22.272              -25.441             -2.766              
H              21.312              -29.087             -5.77               
H              21.752              -27.606             -1.89               
H              21.874              -30.006             -2.534              
N              24.061              -23.091             -7.657              
C              24.121              -21.796             -8.322              
C              22.836              -21.043             -8.034              
O              21.786              -21.621             -7.684              
H              23.949              -23.986             -8.144              
H              24.899              -21.276             -7.975              
H              24.218              -21.928             -9.307              
N              22.924              -19.717             -8.112              
C              21.788              -18.901             -7.677              
C              20.552              -19.163             -8.511              
O              19.461              -19.157             -7.955              
C              22.082              -17.424             -7.887              
C              23.029              -16.857             -6.824              
O              23.207              -17.511             -5.77               
O              23.59               -15.771             -7.1                
H              23.798              -19.343             -8.479              
H              21.575              -19.177             -6.728              
H              22.509              -17.311             -8.775              
H              21.228              -16.923             -7.841              
N              20.731              -19.446             -9.8                
C              19.532              -19.699             -10.633             
C              18.792              -21.044             -10.386             
O              17.668              -21.217             -10.863             
C              19.843              -19.507             -12.122             
O              20.807              -20.452             -12.541             
H              21.681              -19.472             -10.139             
H              18.863              -18.948             -10.446             
H              19.009              -19.638             -12.641             
H              20.202              -18.592             -12.256             
H              20.583              -20.774             -13.461             
N              19.364              -21.977             -9.607              
C              18.709              -23.29              -9.388              
C              18.457              -23.609             -7.973              
O              17.809              -24.635             -7.615              
C              19.598              -24.463             -10.05              
C              19.856              -24.188             -11.578             
C              20.903              -24.661             -9.225              
H              20.263              -21.714             -9.189              
H              17.82               -23.257             -9.892              
H              19.063              -25.288             -9.995              
H              19.217              -24.736             -12.102             
H              19.711              -23.222             -11.746             
H              20.791              -24.445             -11.784             
H              20.933              -25.603             -8.908              
H              21.679              -24.466             -9.815              
H              20.884              -24.034             -8.454              
N              18.97               -22.752             -7.046              
C              18.764              -23.093             -5.631              
C              17.295              -23.14              -5.303              
O              16.52               -22.313             -5.779              
C              19.466              -22.027             -4.782              
C              19.605              -22.392             -3.294              
C              20.486              -21.256             -2.661              
C              19.932              -20.836             -1.35               
N              20.274              -21.924             -0.426              
H              19.452              -21.95              -7.397              
H              19.173              -23.997             -5.46               
H              20.382              -21.885             -5.15               
H              18.941              -21.181             -4.843              
H              18.734              -22.372             -2.869              
H              20.082              -23.23              -3.204              
H              21.398              -21.625             -2.549              
H              20.483              -20.497             -3.297              
H              20.363              -20.004             -1.054              
H              18.955              -20.749             -1.41               
H              20.819              -21.566             0.336               
H              19.437              -22.339             -0.062              
H              20.805              -22.626             -0.907              
N              16.908              -24.149             -4.531              
C              15.515              -24.383             -4.149              
H              17.692              -24.771             -4.214              
H              15.491              -24.782             -3.22               
H              15.03               -23.497             -4.114              
H              15.0159             -25.0451            -4.84414            
H              33.0368             -34.7687            -0.520789           
