210
4.xyz
C              -17.428             16.864              -23.657             
C              -17.757             18.206              -24.373             
O              -18.817             18.37               -24.976             
C              -18.627             15.881              -23.694             
C              -18.498             14.714              -24.669             
C              -19.497             14.452              -25.611             
C              -17.38              13.866              -24.647             
C              -19.385             13.388              -26.506             
C              -17.251             12.8                -25.55              
C              -18.268             12.555              -26.458             
O              -18.158             11.5                -27.347             
H              -16.68              16.423              -24.173             
H              -18.744             15.505              -22.773             
H              -19.444             16.404              -23.943             
H              -20.308             15.036              -25.645             
H              -16.66              14.024              -23.976             
H              -20.104             13.223              -27.182             
H              -16.436             12.23               -25.533             
H              -18.472             11.799              -28.245             
N              -16.869             19.19               -24.282             
C              -17.126             20.435              -24.99              
C              -16.02              20.778              -25.971             
O              -14.862             20.377              -25.802             
C              -17.371             21.599              -24.024             
C              -18.509             21.531              -23.008             
C              -18.37              22.65               -21.951             
C              -19.886             21.577              -23.666             
H              -16.047             19.004              -23.709             
H              -17.992             20.338              -25.506             
H              -16.514             21.742              -23.5               
H              -17.522             22.43               -24.585             
H              -18.487             20.647              -22.544             
H              -18.396             23.533              -22.411             
H              -19.125             22.579              -21.305             
H              -17.502             22.538              -21.475             
H              -19.983             20.801              -24.289             
H              -20.593             21.53               -22.96              
H              -19.981             22.431              -24.178             
N              -16.416             21.477              -27.03              
C              -15.485             22.022              -27.979             
C              -15.646             23.531              -27.915             
O              -16.777             24.051              -27.847             
C              -15.728             21.521              -29.434             
C              -14.549             21.966              -30.332             
C              -15.86              20.007              -29.474             
H              -17.453             21.589              -27.103             
H              -14.562             21.801              -27.689             
H              -16.533             21.976              -29.777             
H              -13.812             21.302              -30.247             
H              -14.863             22.01               -31.276             
H              -14.238             22.863              -30.033             
H              -16.098             19.72               -30.402             
H              -14.99              19.592              -29.207             
H              -16.578             19.721              -28.84              
N              -14.52              24.228              -27.887             
C              -14.578             25.675              -27.797             
C              -13.941             26.364              -28.997             
O              -13.011             25.833              -29.606             
C              -13.876             26.161              -26.531             
C              -14.563             25.812              -25.238             
C              -15.594             26.6                -24.752             
C              -14.116             24.74               -24.448             
C              -16.208             26.32               -23.504             
C              -14.713             24.449              -23.21              
C              -15.755             25.243              -22.752             
O              -16.36              24.96               -21.562             
H              -13.654             23.682              -27.932             
H              -15.553             25.954              -27.759             
H              -12.954             25.764              -26.514             
H              -13.796             27.161              -26.583             
H              -15.923             27.384              -25.276             
H              -13.364             24.175              -24.77              
H              -16.952             26.893              -23.183             
H              -14.387             23.679              -22.67              
H              -16.682             24.013              -21.569             
N              -14.458             27.55               -29.311             
C              -13.897             28.407              -30.325             
C              -13.719             29.795              -29.72              
O              -14.693             30.514              -29.511             
C              -14.791             28.483              -31.564             
C              -14.14              29.227              -32.74              
C              -12.865             28.524              -33.27              
C              -15.165             29.427              -33.87              
H              -15.311             27.801              -28.751             
H              -12.999             28.063              -30.587             
H              -14.978             27.565              -31.864             
H              -15.61              28.971              -31.323             
H              -13.895             30.157              -32.445             
H              -13.109             27.61               -33.58              
H              -12.497             29.056              -34.027             
H              -12.199             28.47               -32.532             
H              -15.932             29.963              -33.523             
H              -14.728             29.911              -34.625             
H              -15.487             28.535              -34.18              
N              -12.484             30.143              -29.376             
C              -12.204             31.516              -28.896             
C              -12.018             32.398              -30.136             
O              -11.18              32.099              -31.01              
C              -10.944             31.518              -28.013             
C              -10.489             32.907              -27.447             
C              -11.398             33.458              -26.349             
H              -11.768             29.417              -29.465             
H              -13.004             31.835              -28.41              
H              -11.097             30.916              -27.22              
H              -10.17              31.151              -28.544             
H              -9.566              32.796              -27.079             
H              -10.471             33.553              -28.209             
O              -11.522             32.862              -25.272             
N              -12.037             34.607              -26.617             
H              -12.661             35.016              -25.942             
H              -11.873             35.051              -27.518             
N              -12.793             33.465              -30.221             
C              -12.753             34.37               -31.365             
C              -12.285             35.761              -30.918             
O              -13.047             36.5                -30.325             
C              -14.147             34.478              -32.005             
C              -14.662             33.155              -32.565             
S              -16.464             33.229              -32.838             
C              -16.476             33.918              -34.438             
H              -13.432             33.606              -29.408             
H              -12.084             34.019              -32.023             
H              -14.798             34.805              -31.313             
H              -14.109             35.147              -32.754             
H              -14.181             32.956              -33.434             
H              -14.434             32.411              -31.916             
H              -15.913             34.755              -34.474             
H              -16.107             33.265              -35.114             
H              -17.415             34.161              -34.719             
N              -11.027             36.088              -31.182             
C              -10.451             37.38               -30.834             
C              -10.456             38.329              -32.042             
O              -10.766             37.928              -33.168             
C              -9.005              37.182              -30.35              
C              -8.932              36.484              -28.993             
O              -9.944              36.521              -28.26              
O              -7.861              35.926              -28.649             
H              -10.48              35.334              -31.665             
H              -11.044             37.797              -30.136             
H              -8.532              36.624              -31.019             
H              -8.583              38.074              -30.27              
N              -10.145             39.593              -31.802             
C              -10.021             40.59               -32.869             
C              -11.028             40.425              -33.998             
O              -10.644             40.254              -35.163             
C              -8.614              40.543              -33.423             
O              -7.739              40.971              -32.408             
H              -9.996              39.822              -30.795             
H              -10.168             41.508              -32.452             
H              -8.394              39.616              -33.674             
H              -8.547              41.157              -34.191             
H              -7.694              40.279              -31.686             
N              -12.318             40.472              -33.649             
C              -13.372             40.192              -34.621             
C              -13.487             41.324              -35.615             
O              -13.186             42.456              -35.281             
C              -14.717             39.996              -33.934             
C              -14.733             38.768              -33.036             
C              -15.412             39.104              -31.722             
C              -15.388             37.615              -33.709             
H              -12.495             40.716              -32.662             
H              -13.132             39.35               -35.115             
H              -14.89              40.781              -33.37              
H              -15.4               39.87               -34.627             
H              -13.795             38.478              -32.861             
H              -16.353             39.399              -31.895             
H              -15.422             38.295              -31.132             
H              -14.913             39.841              -31.264             
H              -14.897             37.376              -34.555             
H              -15.392             36.81               -33.104             
H              -16.34              37.84               -33.946             
N              -13.929             40.988              -36.828             
C              -14.152             41.937              -37.901             
C              -15.594             41.741              -38.327             
O              -16.134             40.675              -38.105             
C              -13.278             41.59               -39.097             
C              -11.787             41.448              -38.874             
C              -11.155             41.097              -40.248             
C              -9.82               40.395              -40.113             
N              -8.844              41.28               -39.412             
H              -14.104             39.953              -36.937             
H              -14.04              42.856              -37.555             
H              -13.62              40.716              -39.491             
H              -13.422             42.306              -39.807             
H              -11.41              42.3                -38.572             
H              -11.608             40.71               -38.257             
H              -11.791             40.502              -40.734             
H              -11.029             41.947              -40.754             
H              -9.94               39.559              -39.585             
H              -9.469              40.177              -41.02              
H              -8.99               42.225              -39.701             
H              -8.981              41.205              -38.425             
H              -7.915              40.996              -39.646             
N              -16.203             42.757              -38.984             
C              -17.551             42.656              -39.588             
C              -17.712             41.423              -40.449             
O              -18.744             40.771              -40.396             
C              -17.639             43.897              -40.468             
C              -16.774             44.893              -39.741             
C              -15.611             44.092              -39.201             
H              -18.258             42.691              -38.862             
H              -17.278             43.717              -41.379             
H              -18.577             44.226              -40.532             
H              -16.456             45.604              -40.372             
H              -17.289             45.322              -38.996             
H              -14.866             44.042              -39.862             
H              -15.276             44.472              -38.341             
N              -16.72              41.124              -41.27              
H              -16.023             41.873              -41.413             
H              -16.6756            40.222              -41.7085            
H              -17.1077            17.003              -22.6481            
