254
2.xyz
C              6.099               -1.141              -16.945             
C              6.979               -1.154              -15.705             
O              8.155               -0.754              -15.735             
H              5.366               -0.442              -16.825             
H              5.625               -2.041              -17.025             
N              6.41                -1.63               -14.601             
C              7.082               -1.589              -13.313             
C              7.92                -2.83               -13.045             
O              7.5                 -3.951              -13.333             
C              6.064               -1.398              -12.19              
C              5.282               -0.096              -12.282             
C              6.146               1.126               -11.966             
H              5.458               -2.027              -14.74              
H              7.707               -0.79               -13.312             
H              5.41                -2.156              -12.216             
H              6.547               -1.409              -11.312             
H              4.927               0.003               -13.208             
H              4.528               -0.125              -11.63              
O              6.14                2.114               -12.7               
N              6.897               1.056               -10.873             
H              7.504               1.823               -10.61              
H              6.851               0.214               -10.3               
N              9.093               -2.62               -12.456             
C              10.007              -3.717              -12.126             
C              10.512              -3.618              -10.691             
O              10.735              -2.536              -10.186             
C              11.211              -3.692              -13.077             
C              10.825              -4.024              -14.468             
C              10.523              -3.16               -15.482             
C              10.649              -5.338              -14.987             
N              10.185              -3.865              -16.613             
C              10.254              -5.208              -16.331             
C              10.812              -6.619              -14.445             
C              9.992               -6.314              -17.149             
C              10.541              -7.73               -15.258             
C              10.142              -7.561              -16.598             
H              9.306               -1.622              -12.251             
H              9.49                -4.579              -12.209             
H              11.595              -2.783              -13.076             
H              11.867              -4.365              -12.773             
H              10.543              -2.166              -15.415             
H              9.932               -3.471              -17.492             
H              11.113              -6.752              -13.509             
H              9.705               -6.18               -18.101             
H              10.633              -8.638              -14.877             
H              9.967               -8.376              -17.15              
N              10.697              -4.765              -10.042             
C              11.326              -4.803              -8.742              
C              12.695              -5.468              -8.93               
O              12.793              -6.537              -9.506              
C              10.47               -5.572              -7.738              
H              10.355              -5.607              -10.546             
H              11.471              -3.878              -8.415              
H              10.446              -5.074              -6.873              
H              9.542               -5.665              -8.096              
H              10.864              -6.478              -7.591              
N              13.748              -4.784              -8.491              
C              15.089              -5.331              -8.53               
C              15.372              -5.911              -7.16               
O              15.256              -5.213              -6.141              
H              13.523              -3.835              -8.123              
H              15.143              -6.049              -9.214              
H              15.743              -4.611              -8.729              
N              15.71               -7.196              -7.127              
C              15.782              -7.925              -5.865              
C              17.209              -8.423              -5.703              
O              17.809              -8.93               -6.673              
C              14.832              -9.147              -5.898              
C              13.392              -8.727              -6.207              
C              14.973              -10.007             -4.603              
C              12.811              -7.763              -5.23               
H              15.912              -7.621              -8.048              
H              15.629              -7.257              -5.146              
H              15.141              -9.753              -6.627              
H              13.378              -8.323              -7.125              
H              12.829              -9.558              -6.227              
H              14.433              -10.832             -4.713              
H              15.931              -10.234             -4.479              
H              14.64               -9.475              -3.835              
H              13.359              -6.923              -5.211              
H              11.871              -7.533              -5.493              
H              12.803              -8.168              -4.313              
N              17.766              -8.304              -4.492              
C              18.982              -9.026              -4.213              
C              18.593              -10.321             -3.473              
O              17.939              -10.273             -2.435              
C              20.003              -8.224              -3.362              
C              19.377              -7.796              -2.023              
C              21.238              -9.081              -3.107              
H              17.275              -7.694              -3.838              
H              19.407              -9.291              -5.071              
H              20.219              -7.391              -3.857              
H              20.097              -7.714              -1.338              
H              18.921              -6.917              -2.143              
H              18.715              -8.485              -1.738              
H              21.255              -9.836              -3.762              
H              22.057              -8.519              -3.219              
H              21.201              -9.442              -2.176              
N              18.961              -11.454             -4.065              
C              18.562              -12.79              -3.594              
C              19.54               -13.305             -2.556              
O              20.736              -12.998             -2.629              
C              18.51               -13.755             -4.787              
C              17.509              -13.429             -5.896              
C              17.827              -14.215             -7.178              
C              16.097              -13.707             -5.404              
H              19.57               -11.317             -4.91               
H              17.653              -12.715             -3.174              
H              19.419              -13.773             -5.201              
H              18.282              -14.66              -4.435              
H              17.548              -12.45              -6.097              
H              17.783              -15.192             -6.982              
H              17.158              -13.98              -7.88               
H              18.743              -13.974             -7.49               
H              15.903              -13.138             -4.603              
H              15.441              -13.494             -6.13               
H              16.013              -14.672             -5.154              
N              19.048              -14.078             -1.578              
C              19.918              -14.708             -0.567              
C              20.941              -15.645             -1.214              
O              22.073              -15.759             -0.749              
C              19.116              -15.533             0.435               
C              18.253              -14.689             1.346               
O              18.107              -13.486             1.113               
O              17.714              -15.253             2.311               
H              18.018              -14.194             -1.592              
H              20.435              -13.967             -0.123              
H              18.529              -16.154             -0.077              
H              19.759              -16.052             0.991               
N              20.537              -16.321             -2.283              
C              21.442              -17.239             -2.97               
C              21.726              -16.709             -4.358              
O              20.891              -16.028             -4.938              
C              20.801              -18.631             -3.095              
C              20.158              -19.167             -1.819              
C              21.182              -19.515             -0.745              
O              22.335              -19.843             -1.101              
O              20.834              -19.458             0.457               
H              19.563              -16.148             -2.575              
H              22.296              -17.318             -2.454              
H              20.094              -18.572             -3.782              
H              21.511              -19.264             -3.359              
H              19.572              -18.47              -1.454              
H              19.672              -19.99              -2.04               
N              22.897              -17.044             -4.913              
C              23.356              -16.551             -6.218              
C              22.721              -17.305             -7.382              
O              23.403              -17.932             -8.204              
C              24.856              -16.83              -6.167              
C              24.95               -18.042             -5.338              
C              23.909              -17.899             -4.27               
H              23.185              -15.556             -6.301              
H              25.215              -16.986             -7.089              
H              25.342              -16.06              -5.751              
H              24.781              -18.872             -5.891              
H              25.871              -18.129             -4.928              
H              23.514              -18.781             -4.02               
H              24.276              -17.454             -3.454              
N              21.401              -17.22              -7.452              
C              20.641              -17.974             -8.431              
C              19.926              -17.043             -9.413              
O              19.046              -17.484             -10.157             
C              19.613              -18.873             -7.737              
C              18.645              -18.023             -6.899              
C              20.331              -19.933             -6.88               
C              17.54               -18.816             -6.22               
H              20.967              -16.578             -6.757              
H              21.308              -18.497             -8.972              
H              19.082              -19.337             -8.436              
H              19.174              -17.542             -6.2                
H              18.226              -17.344             -7.503              
H              19.651              -20.536             -6.473              
H              20.945              -20.458             -7.461              
H              20.85               -19.475             -6.165              
H              17.949              -19.488             -5.606              
H              16.961              -18.192             -5.7                
H              16.996              -19.281             -6.915              
N              20.318              -15.77              -9.416              
C              19.687              -14.762             -10.261             
C              20.306              -14.615             -11.639             
O              20.892              -15.559             -12.169             
H              21.107              -15.56              -8.768              
H              18.694              -14.988             -10.363             
H              19.72               -13.859             -9.782              
N              20.19               -13.42              -12.215             
C              20.597              -13.2               -13.6               
C              21.662              -12.108             -13.748             
O              22.29               -11.979             -14.806             
C              19.384              -12.803             -14.45              
C              18.271              -13.834             -14.537             
C              17.244              -13.426             -15.586             
C              17.852              -13.534             -16.977             
N              16.99               -12.943             -18.028             
H              19.795              -12.679             -11.609             
H              20.974              -14.066             -13.971             
H              19                  -11.957             -14.065             
H              19.71               -12.611             -15.382             
H              18.66               -14.715             -14.793             
H              17.818              -13.904             -13.653             
H              16.469              -14.036             -15.53              
H              16.978              -12.488             -15.428             
H              18.744              -13.065             -16.976             
H              18.01               -14.508             -17.186             
H              16.854              -11.969             -17.841             
H              17.428              -13.052             -18.921             
H              16.104              -13.407             -18.034             
N              21.87               -11.32              -12.704             
C              22.656              -10.11              -12.877             
C              23.27               -9.6                -11.575             
O              23.079              -10.203             -10.517             
C              21.787              -9.036              -13.543             
C              20.614              -8.61               -12.672             
H              21.453              -11.622             -11.821             
H              23.428              -10.338             -13.495             
H              22.355              -8.239              -13.722             
H              21.431              -9.405              -14.396             
O              20.807              -8.09               -11.588             
N              19.385              -8.822              -13.153             
H              19.288              -9.253              -14.054             
H              18.588              -8.558              -12.628             
N              24.002              -8.492              -11.663             
C              24.622              -7.847              -10.496             
C              23.946              -6.522              -10.133             
O              24.542              -5.687              -9.454              
C              26.111              -7.598              -10.74              
C              26.368              -6.425              -11.696             
O              25.449              -5.999              -12.429             
O              27.512              -5.948              -11.727             
H              24.101              -8.116              -12.633             
H              24.492              -8.47               -9.711              
H              26.539              -7.39               -9.87               
H              26.503              -8.416              -11.138             
N              22.703              -6.348              -10.58              
C              21.961              -5.122              -10.349             
C              21.949              -4.266              -11.598             
O              21.212              -3.293              -11.667             
H              22.317              -7.163              -11.104             
H              21.015              -5.345              -10.087             
H              22.386              -4.608              -9.595              
N              22.776              -4.617              -12.573             
C              22.79               -3.906              -13.853             
C              22.26               -4.803              -14.989             
O              22.412              -6.026              -14.946             
C              24.199              -3.36               -14.163             
O              25.106              -4.392              -14.534             
H              23.397              -5.418              -12.359             
H              22.175              -3.115              -13.78              
H              24.127              -2.706              -14.913             
H              24.547              -2.901              -13.348             
H              25.255              -4.997              -13.754             
N              21.637              -4.19               -15.998             
H              21.536              -3.16               -15.885             
H              21.2852             -4.69376            -16.8209            
H              6.62527             -0.943014           -17.841             
