268
6.xyz
S              -0.252              -4.116              6.546               
C              -6.309              -1.512              10.244              
C              -6.357              -0.989              8.793               
O              -6.757              -1.708              7.876               
C              -7.556              -1.096              11.004              
C              -8.817              -1.433              10.202              
C              -7.608              -1.781              12.363              
H              -6.279              -2.514              10.2                
H              -7.545              -0.104              11.108              
H              -9.617              -1.34               10.792              
H              -8.893              -0.805              9.43                
H              -8.753              -2.371              9.868               
H              -7.262              -2.715              12.275              
H              -7.042              -1.272              13.011              
H              -8.554              -1.801              12.686              
N              -5.904              0.227               8.548               
C              -5.853              0.769               7.19                
C              -4.91               -0.044              6.295               
O              -5.237              -0.346              5.146               
C              -5.366              2.206               7.219               
C              -5.246              2.852               5.843               
C              -4.738              4.264               5.942               
H              -5.592              0.759               9.384               
H              -6.778              0.706               6.795               
H              -6.004              2.758               7.762               
H              -4.46               2.237               7.652               
H              -4.61               2.315               5.297               
H              -6.146              2.858               5.418               
O              -3.636              4.514               6.438               
N              -5.564              5.208               5.513               
H              -5.299              6.197               5.559               
H              -6.469              4.94                5.134               
N              -3.736              -0.373              6.814               
C              -2.753              -1.133              6.055               
C              -3.297              -2.488              5.693               
O              -3.206              -2.948              4.557               
C              -1.482              -1.307              6.897               
S              -0.125              -2.111              6.067               
H              -3.581              -0.049              7.789               
H              -2.556              -0.629              5.205               
H              -1.189              -0.393              7.192               
H              -1.732              -1.843              7.71                
N              -3.803              -3.177              6.691               
C              -4.302              -4.525              6.518               
C              -5.534              -4.576              5.625               
O              -5.749              -5.555              4.904               
C              -4.552              -5.162              7.857               
C              -5.258              -6.48               7.724               
C              -3.2                -5.327              8.606               
H              -3.815              -2.676              7.608               
H              -3.577              -5.078              6.075               
H              -5.158              -4.558              8.385               
H              -4.608              -7.192              7.446               
H              -5.669              -6.74               8.601               
H              -5.982              -6.414              7.033               
H              -3.139              -6.262              8.941               
H              -2.462              -5.136              7.967               
H              -3.18               -4.683              9.364               
N              -6.324              -3.512              5.642               
C              -7.528              -3.477              4.843               
C              -7.212              -3.535              3.367               
O              -8.09               -3.868              2.56                
C              -8.346              -2.23               5.167               
O              -8.906              -2.31               6.48                
H              -6.011              -2.741              6.255               
H              -8.084              -4.289              5.075               
H              -7.755              -1.432              5.122               
H              -9.088              -2.148              4.51                
H              -8.2                -2.095              7.15                
N              -5.973              -3.225              2.99                
C              -5.509              -3.4                1.618               
C              -5.563              -4.874              1.203               
O              -5.62               -5.161              0.019               
C              -4.067              -2.915              1.421               
C              -3.804              -1.433              1.69                
C              -2.37               -1.068              1.234               
C              -1.333              -1.145              2.352               
N              -1.062              -2.502              2.878               
H              -5.37               -2.85               3.753               
H              -6.104              -2.873              1                   
H              -3.472              -3.452              2.031               
H              -3.801              -3.111              0.469               
H              -4.445              -0.886              1.173               
H              -3.879              -1.255              2.659               
H              -2.105              -1.701              0.506               
H              -2.385              -0.135              0.874               
H              -0.462              -0.741              2.008               
H              -1.644              -0.547              3.118               
H              -0.952              -2.461              3.872               
H              -1.827              -3.108              2.654               
H              -0.223              -2.86               2.466               
N              -5.47               -5.774              2.17                
C              -5.425              -7.222              1.953               
C              -6.812              -7.843              2.137               
O              -7.329              -8.521              1.263               
C              -4.423              -7.879              2.9                 
C              -2.984              -7.426              2.732               
C              -2.055              -8.212              2.036               
C              -2.546              -6.221              3.241               
C              -0.733              -7.805              1.912               
C              -1.227              -5.809              3.103               
C              -0.334              -6.601              2.425               
O              0.974               -6.192              2.285               
H              -5.43               -5.353              3.14                
H              -5.132              -7.39               1.006               
H              -4.702              -7.679              3.841               
H              -4.453              -8.87               2.752               
H              -2.349              -9.073              1.627               
H              -3.193              -5.623              3.723               
H              -0.073              -8.403              1.441               
H              -0.934              -4.936              3.499               
H              1.073               -5.275              2.667               
N              -7.405              -7.603              3.3                 
C              -8.74               -8.068              3.601               
C              -9.423              -7.102              4.531               
O              -8.846              -6.724              5.511               
C              -8.705              -9.435              4.293               
C              -8.318              -10.597             3.417               
C              -9.438              -10.945             2.477               
C              -9.002              -12.024             1.503               
N              -10.045             -12.449             0.556               
H              -6.822              -7.051              3.972               
H              -9.267              -8.128              2.745               
H              -8.051              -9.376              5.055               
H              -9.621              -9.609              4.672               
H              -7.508              -10.352             2.885               
H              -8.113              -11.389             3.991               
H              -10.211             -11.286             2.999               
H              -9.696              -10.139             1.958               
H              -8.197              -11.682             0.984               
H              -8.685              -12.83              2.037               
H              -10.879             -11.914             0.706               
H              -9.729              -12.307             -0.385              
H              -10.25              -13.421             0.69                
N              -10.691             -6.809              4.292               
C              -11.464             -5.982              5.202               
C              -12.262             -6.843              6.137               
O              -12.486             -8.023              5.875               
C              -12.409             -5.046              4.428               
O              -13.413             -5.841              3.802               
C              -11.658             -4.2                3.385               
H              -11.077             -7.213              3.416               
H              -10.825             -5.421              5.742               
H              -12.86              -4.418              5.088               
H              -10.948             -4.757              2.955               
H              -12.302             -3.883              2.689               
H              -11.239             -3.413              3.836               
H              -13.145             -6.811              3.8                 
N              -12.737             -6.259              7.222               
C              -13.565             -7.015              8.145               
C              -14.855             -7.43               7.478               
O              -15.403             -8.496              7.777               
C              -13.859             -6.204              9.407               
C              -12.658             -6.092              10.299              
S              -13.026             -5.226              11.817              
C              -12.875             -3.561              11.381              
H              -12.482             -5.272              7.349               
H              -13.064             -7.848              8.407               
H              -14.154             -5.284              9.138               
H              -14.602             -6.651              9.912               
H              -12.302             -7.036              10.494              
H              -11.905             -5.62               9.783               
H              -13.036             -2.957              12.177              
H              -11.95              -3.357              11.024              
H              -13.543             -3.307              10.664              
N              -15.365             -6.598              6.58                
C              -16.589             -6.91               5.872               
C              -16.443             -8.224              5.102               
O              -17.452             -8.9                4.869               
C              -16.975             -5.742              4.963               
C              -18.382             -5.909              4.369               
C              -18.927             -4.615              3.902               
C              -20.336             -4.737              3.343               
N              -20.706             -3.4                2.765               
H              -14.82              -5.725              6.435               
H              -17.34              -7.012              6.534               
H              -16.964             -4.91               5.496               
H              -16.329             -5.697              4.215               
H              -18.32              -6.554              3.604               
H              -18.974             -6.298              5.078               
H              -18.955             -3.962              4.665               
H              -18.341             -4.239              3.177               
H              -20.347             -5.412              2.628               
H              -20.96              -4.957              4.071               
H              -20.655             -3.451              1.77                
H              -21.635             -3.171              3.047               
H              -20.068             -2.712              3.104               
N              -15.209             -8.628              4.782               
C              -14.895             -9.933              4.126               
C              -15.663             -11.074             4.698               
O              -16.08              -11.946             3.932               
C              -13.423             -10.356             4.342               
O              -12.523             -9.489              3.728               
H              -14.455             -7.943              5.032               
H              -15.135             -9.828              3.145               
H              -13.252             -10.38              5.329               
H              -13.312             -11.28              3.969               
H              -12.42              -9.727              2.759               
N              -15.768             -11.156             6.026               
C              -16.449             -12.295             6.681               
C              -17.932             -12.394             6.389               
O              -18.554             -13.412             6.703               
C              -16.292             -12.332             8.254               
C              -14.828             -12.437             8.645               
C              -16.972             -11.125             8.931               
H              -15.343             -10.374             6.551               
H              -15.999             -13.147             6.346               
H              -16.748             -13.156             8.565               
H              -14.448             -11.52              8.771               
H              -14.745             -12.95              9.5                 
H              -14.321             -12.91              7.924               
H              -17.106             -11.333             9.896               
H              -16.383             -10.327             8.829               
H              -17.85              -10.963             8.489               
N              -18.527             -11.368             5.817               
C              -19.919             -11.476             5.392               
C              -20.095             -12.137             4.038               
O              -21.232             -12.307             3.561               
C              -20.557             -10.102             5.361               
C              -20.703             -9.498              6.748               
O              -20.573             -10.217             7.778               
O              -20.976             -8.295              6.793               
H              -17.955             -10.522             5.7                 
H              -20.393             -12.063             6.075               
H              -19.984             -9.501              4.815               
H              -21.46              -10.183             4.956               
N              -18.991             -12.51              3.406               
C              -19.032             -13.128             2.081               
C              -18.476             -14.52              2.233               
O              -17.958             -15.127             1.287               
C              -18.195             -12.31              1.129               
C              -18.5               -10.845             1.157               
C              -19.816             -10.378             1.174               
C              -17.461             -9.924              1.145               
C              -20.089             -9.014              1.158               
C              -17.733             -8.559              1.147               
C              -19.059             -8.116              1.153               
H              -18.107             -12.329             3.923               
H              -19.99              -13.217             1.835               
H              -17.241             -12.426             1.375               
H              -18.363             -12.637             0.208               
H              -20.569             -11.027             1.199               
H              -16.516             -10.24              1.136               
H              -21.05              -8.707              1.149               
H              -16.974             -7.894              1.143               
H              -19.245             -7.128              1.154               
N              -18.764             -15.022             3.427               
C              -17.992             -15.975             4.226               
C              -16.709             -16.48              3.589               
O              -15.648             -15.917             3.903               
C              -18.908             -17.099             4.746               
C              -19.811             -16.611             5.913               
C              -20.426             -15.214             5.684               
C              -20.937             -17.58              6.239               
O              -16.707             -17.413             2.785               
H              -19.707             -14.635             3.804               
H              -17.752             -15.521             5.114               
H              -19.498             -17.374             4.021               
H              -18.348             -17.815             5.094               
H              -19.259             -16.592             6.757               
H              -20.987             -15.238             4.86                
H              -20.988             -14.975             6.472               
H              -19.69              -14.55              5.576               
H              -20.551             -18.465             6.504               
H              -21.484             -17.216             6.994               
H              -21.52              -17.699             5.434               
H              0.382166            -4.23021            7.78803             
H              -5.43844            -1.16698            10.728              
