286
0.xyz
N              -40.763             12.332              -11.862             
C              -41.282             12.884              -10.569             
C              -40.216             12.711              -9.464              
O              -39.598             11.638              -9.319              
C              -42.672             12.289              -10.211             
C              -42.805             11.513              -8.877              
C              -42.435             10.02               -8.964              
O              -41.42              9.669               -9.627              
O              -43.172             9.197               -8.35               
H              -39.768             12.355              -11.847             
H              -41.489             13.85               -10.687             
H              -43.317             13.046              -10.173             
H              -42.922             11.66               -10.94              
H              -42.196             11.929              -8.224              
H              -43.745             11.566              -8.588              
H              -41.08              11.394              -11.963             
H              -41.105             12.89               -12.612             
N              -40.01              13.782              -8.696              
C              -38.757             13.969              -7.937              
C              -38.597             13.2                -6.626              
O              -39.344             13.419              -5.678              
C              -38.454             15.465              -7.751              
C              -37.323             15.969              -8.681              
S              -37.362             15.408              -10.427             
C              -35.652             14.813              -10.631             
H              -40.79              14.464              -8.675              
H              -37.981             13.693              -8.559              
H              -39.277             15.996              -7.951              
H              -38.172             15.63               -6.806              
H              -37.322             17.01               -8.637              
H              -36.415             15.711              -8.24               
H              -35.601             14.263              -11.46              
H              -35.045             15.6                -10.703             
H              -35.408             14.263              -9.838              
N              -37.596             12.31               -6.616              
C              -37.213             11.489              -5.459              
C              -35.887             11.937              -4.864              
O              -34.987             12.327              -5.574              
C              -37.054             10.044              -5.879              
C              -38.277             9.454               -6.615              
C              -38.612             8.048               -6.109              
C              -39.55              8.083               -4.86               
N              -40.99              8.426               -5.165              
H              -37.087             12.245              -7.541              
H              -37.932             11.573              -4.755              
H              -36.27              9.968               -6.494              
H              -36.896             9.485               -5.066              
H              -39.061             10.05               -6.459              
H              -38.072             9.408               -7.589              
H              -39.081             7.546               -6.824              
H              -37.776             7.587               -5.844              
H              -39.514             7.177               -4.418              
H              -39.181             8.762               -4.212              
H              -41.522             8.346               -4.327              
H              -41.031             9.359               -5.51               
H              -41.332             7.791               -5.852              
N              -35.733             11.827              -3.548              
C              -34.394             12.146              -3.035              
C              -33.336             11.134              -3.539              
O              -33.67              9.996               -3.917              
C              -34.579             12.082              -1.499              
C              -35.811             11.253              -1.295              
C              -36.684             11.418              -2.506              
H              -34.126             13.083              -3.285              
H              -33.781             11.653              -1.071              
H              -34.698             13.003              -1.125              
H              -35.559             10.279              -1.162              
H              -36.298             11.552              -0.456              
H              -37.131             10.559              -2.755              
H              -37.378             12.125              -2.364              
N              -32.072             11.521              -3.601              
C              -31.037             10.557              -4.022              
C              -30.73              9.483               -2.983              
O              -30.537             9.798               -1.795              
C              -29.748             11.293              -4.329              
C              -29.851             12.138              -5.529              
H              -31.878             12.491              -3.347              
H              -31.366             10.098              -4.868              
H              -29.507             11.872              -3.543              
H              -29.013             10.62               -4.468              
N              -30.139             11.597              -6.766              
C              -29.749             13.476              -5.713              
C              -30.158             12.557              -7.67               
N              -29.947             13.704              -7.056              
H              -30.307             10.627              -6.943              
H              -29.567             14.16               -5.019              
H              -30.305             12.437              -8.647              
N              -30.569             8.241               -3.438              
C              -30.372             7.173               -2.492              
C              -28.938             7.104               -1.931              
O              -28.634             6.2                 -1.13               
C              -30.655             5.931               -3.337              
C              -30.136             6.359               -4.721              
C              -30.678             7.745               -4.832              
H              -31.038             7.232               -1.722              
H              -30.145             5.148               -3.014              
H              -31.622             5.737               -3.385              
H              -29.149             6.345               -4.72               
H              -30.508             5.758               -5.41               
H              -30.131             8.312               -5.442              
H              -31.632             7.751               -5.126              
N              -28.085             8.035               -2.361              
C              -26.651             7.973               -2.049              
C              -26.202             9.027               -1.054              
O              -25.044             9.062               -0.71               
C              -25.827             8.081               -3.348              
C              -26.231             9.138               -4.377              
C              -26.985             8.927               -5.485              
C              -25.89              10.511              -4.392              
N              -27.164             10.096              -6.167              
C              -26.457             11.078              -5.554              
C              -25.14              11.331              -3.552              
C              -26.326             12.437              -5.874              
C              -24.992             12.673              -3.882              
C              -25.571             13.219              -5.03               
H              -28.513             8.793               -2.924              
H              -26.472             7.062               -1.637              
H              -24.866             8.273               -3.108              
H              -25.859             7.194               -3.827              
H              -27.359             8.039               -5.766              
H              -27.728             10.21               -6.99               
H              -24.713             10.971              -2.725              
H              -26.771             12.809              -6.691              
H              -24.453             13.258              -3.275              
H              -25.433             14.183              -5.234              
N              -27.099             9.908               -0.604              
C              -26.616             10.937              0.311               
C              -26.873             10.598              1.755               
O              -27.998             10.522              2.16                
C              -27.218             12.315              0.002               
C              -26.58              13.396              0.819               
C              -25.357             13.969              0.393               
C              -27.118             13.754              2.057               
C              -24.72              14.918              1.118               
C              -26.456             14.731              2.829               
C              -25.275             15.31               2.359               
H              -28.045             9.803               -0.925              
H              -25.61              10.984              0.189               
H              -27.056             12.506              -0.946              
H              -28.172             12.281              0.225               
H              -24.969             13.647              -0.477              
H              -27.943             13.337              2.389               
H              -23.873             15.345              0.802               
H              -26.844             15.003              3.719               
H              -24.808             16.011              2.897               
N              -25.788             10.357              2.484               
C              -25.902             9.806               3.858               
C              -25.527             10.804              4.921               
O              -25.506             10.405              6.115               
C              -25.105             8.524               4.014               
C              -25.833             7.27                3.512               
C              -25.963             7.014               2.173               
C              -26.295             6.337               4.397               
C              -26.595             5.884               1.714               
C              -26.925             5.197               3.974               
C              -27.075             4.964               2.583               
H              -24.889             10.575              2.037               
H              -26.88              9.577               3.985               
H              -24.272             8.604               3.489               
H              -24.917             8.384               4.973               
H              -25.587             7.666               1.503               
H              -26.168             6.491               5.39                
H              -26.697             5.752               0.709               
H              -27.284             4.523               4.629               
H              -27.527             4.134               2.279               
N              -25.264             12.057              4.562               
C              -24.921             13.086              5.56                
C              -23.689             12.732              6.372               
O              -22.706             12.15               5.881               
H              -25.318             12.247              3.547               
H              -24.77              13.967              5.082               
H              -25.711             13.214              6.182               
N              -23.732             13.059              7.656               
C              -22.586             12.858              8.488               
C              -22.478             11.417              9.034               
O              -22.475             11.211              10.229              
C              -22.588             13.897              9.652               
C              -21.148             14.06               10.254              
C              -21.046             15.157              11.364              
C              -19.652             15.111              12.009              
N              -18.912             16.422              12.3                
H              -24.632             13.454              7.977               
H              -21.739             13.049              7.958               
H              -22.862             14.762              9.294               
H              -23.173             13.566              10.36               
H              -20.871             13.184              10.65               
H              -20.521             14.302              9.513               
H              -21.174             16.033              10.941              
H              -21.721             14.964              12.048              
H              -19.72              14.591              12.897              
H              -19.037             14.534              11.416              
H              -17.96              16.303              12.046              
H              -19.333             17.141              11.76               
H              -18.996             16.615              13.27               
N              -22.399             10.391              8.21                
C              -22.039             9.11                8.846               
C              -20.515             8.954               9.012               
O              -19.764             9.47                8.162               
C              -22.717             7.9                 8.205               
C              -22.268             7.658               6.746               
C              -24.276             7.975               8.376               
C              -22.562             6.205               6.407               
H              -22.579             10.532              7.247               
H              -22.424             9.141               9.774               
H              -22.47              7.082               8.733               
H              -22.784             8.238               6.163               
H              -21.31              7.812               6.692               
H              -24.662             7.114               8.073               
H              -24.475             8.131               9.334               
H              -24.612             8.724               7.822               
H              -23.541             6.038               6.504               
H              -22.28              6.024               5.467               
H              -22.055             5.614               7.031               
N              -20.04              8.272               10.082              
C              -18.595             8.08                10.189              
C              -18.023             7.296               9.064               
O              -18.752             6.474               8.486               
C              -18.439             7.31                11.489              
C              -19.648             7.739               12.297              
C              -20.74              7.963               11.359              
H              -18.131             8.985               10.287              
H              -18.459             6.325               11.333              
H              -17.599             7.562               11.963              
H              -19.866             7.015               12.977              
H              -19.414             8.577               12.823              
H              -21.321             7.153               11.233              
H              -21.325             8.74                11.616              
N              -16.746             7.585               8.716               
C              -15.991             6.743               7.774               
C              -16.183             5.231               8.04                
O              -16.429             4.419               7.113               
C              -14.537             7.103               7.87                
C              -13.621             6.373               6.88                
C              -12.221             6.732               7.195               
N              -11.269             5.869               6.511               
C              -10.59              6.233               5.417               
N              -10.731             7.423               4.916               
N              -9.709              5.394               4.879               
H              -16.362             8.432               9.164               
H              -16.31              6.94                6.836               
H              -14.431             8.085               7.702               
H              -14.206             6.889               8.791               
H              -13.748             5.401               6.989               
H              -13.843             6.671               5.966               
H              -12.055             7.679               6.915               
H              -12.078             6.65                8.183               
H              -11.11              4.949               6.876               
H              -11.33              8.108               5.337               
H              -10.227             7.685               4.075               
H              -9.546              4.504               5.308               
H              -9.212              5.65                4.053               
N              -16.104             4.816               9.324               
C              -16.17              3.421               9.633               
C              -17.59              2.879               9.36                
O              -17.763             1.752               8.934               
C              -15.771             3.187               11.123              
H              -15.997             5.576               10.01               
H              -15.531             2.91                9.048               
H              -16.543             3.432               11.698              
H              -15.541             2.228               11.241              
H              -14.987             3.76                11.333              
N              -18.599             3.675               9.641               
C              -19.953             3.266               9.442               
C              -20.264             3.103               7.941               
O              -20.933             2.227               7.561               
C              -20.933             4.211               10.099              
C              -20.927             4.129               11.573              
C              -21.469             2.825               12.031              
C              -22.847             2.67                11.609              
N              -23.051             2.88                10.165              
H              -18.322             4.611               10.014              
H              -20.113             2.375               9.887               
H              -20.697             5.144               9.82                
H              -21.85              3.989               9.76                
H              -19.985             4.232               11.913              
H              -21.487             4.871               11.956              
H              -20.908             2.09                11.642              
H              -21.412             2.786               13.031              
H              -23.186             1.736               11.845              
H              -23.447             3.325               12.113              
H              -23.067             3.862               9.964               
H              -22.305             2.451               9.651               
H              -23.922             2.472               9.883               
N              -19.735             3.99                7.124               
H              -19.28              4.803               7.56                
H              -19.7808            3.86441             6.09082             
