326
0.xyz
N              8.999               21.447              9.885               
C              9.954               20.347              9.946               
C              9.382               19.085              9.308               
O              9.989               18.016              9.372               
C              10.357              20.066              11.395              
C              11.494              19.068              11.541              
C              11.948              18.908              12.979              
O              11.976              17.76               13.471              
O              12.277              19.93               13.618              
H              9.484               22.324              9.91                
H              10.803              20.608              9.469               
H              10.653              20.916              11.793              
H              9.572               19.694              11.858              
H              11.177              18.192              11.23               
H              12.261              19.394              11.022              
H              8.468               21.393              9.037               
H              8.371               21.4                10.665              
N              8.212               19.218              8.692               
C              7.555               18.088              8.039               
C              8.215               17.727              6.709               
O              8.061               18.462              5.739               
C              6.066               18.374              7.827               
C              5.268               17.123              7.71                
S              5.66                15.989              9.073               
C              6.646               14.656              8.321               
H              7.813               20.176              8.714               
H              7.629               17.286              8.65                
H              5.731               18.912              8.605               
H              5.962               18.916              6.988               
H              4.275               17.345              7.718               
H              5.459               16.673              6.818               
H              7.131               15.022              7.531               
H              7.296               14.318              8.996               
H              6.033               13.923              8.038               
N              8.908               16.594              6.654               
C              9.607               16.157              5.454               
C              9.122               14.843              4.88                
O              8.665               14.012              5.591               
C              11.067              16                  5.764               
C              11.723              17.296              6.186               
C              12.867              17.057              7.098               
C              13.828              16.049              6.523               
N              13.439              14.654              6.836               
H              8.907               16.046              7.545               
H              9.505               16.883              4.738               
H              11.171              15.343              6.507               
H              11.536              15.665              4.949               
H              12.042              17.777              5.362               
H              11.037              17.869              6.646               
H              13.362              17.913              7.248               
H              12.533              16.708              7.974               
H              13.865              16.163              5.522               
H              14.75               16.224              6.893               
H              14.24               14.147              7.158               
H              12.737              14.654              7.549               
H              13.077              14.215              6.013               
N              9.255               14.636              3.591               
C              8.865               13.302              3.114               
C              9.875               12.284              3.578               
O              11.008              12.649              3.906               
C              8.916               13.431              1.566               
C              9.794               14.636              1.309               
C              9.696               15.537              2.514               
H              7.942               13.072              3.429               
H              9.315               12.609              1.162               
H              7.999               13.575              1.199               
H              10.749              14.34               1.156               
H              9.485               15.115              0.474               
H              10.583              15.945              2.737               
H              9.025               16.269              2.369               
N              9.496               11.015              3.608               
C              10.459              9.975               4.03                
C              11.51               9.699               2.997               
O              11.145              9.534               1.821               
C              9.684               8.704               4.286               
C              8.841               8.806               5.479               
H              8.533               10.819              3.33                
H              10.907              10.304              4.88                
H              9.103               8.509               3.49                
H              10.331              7.945               4.407               
N              9.412               9.039               6.727               
C              7.499               8.724               5.677               
C              8.444               9.059               7.639               
N              7.285               8.907               7.03                
H              10.379              9.168               6.901               
H              6.806               8.563               4.988               
H              8.579               9.17                8.621               
N              12.769              9.479               3.428               
C              13.847              9.277               2.478               
C              13.893              7.862               1.906               
O              14.74               7.579               1.031               
C              15.085              9.556               3.33                
C              14.673              8.997               4.689               
C              13.269              9.561               4.83                
H              13.797              9.96                1.723               
H              15.876              9.07                2.986               
H              15.265              10.527              3.399               
H              14.661              8.014               4.662               
H              15.268              9.343               5.392               
H              12.713              9.002               5.428               
H              13.286              10.503              5.137               
N              12.934              7.015               2.329               
C              13.018              5.604               2.05                
C              11.988              5.129               1.06                
O              12.012              3.955               0.694               
C              12.912              4.801               3.38                
C              11.88               5.189               4.428               
C              12.083              5.934               5.552               
C              10.501              4.877               4.393               
N              10.912              6.068               6.266               
C              9.913               5.419               5.573               
C              9.708               4.115               3.52                
C              8.558               5.277               5.874               
C              8.33                3.969               3.807               
C              7.758               4.527               4.979               
H              12.166              7.468               2.852               
H              13.937              5.421               1.649               
H              12.734              3.828               3.147               
H              13.818              4.834               3.841               
H              12.961              6.332               5.826               
H              10.803              6.546               7.127               
H              10.089              3.682               2.715               
H              8.162               5.688               6.693               
H              7.763               3.465               3.172               
H              6.805               4.394               5.172               
N              11.059              6.008               0.661               
C              10.058              5.528               -0.327              
C              10.43               5.778               -1.777              
O              10.486              6.911               -2.215              
C              8.651               6.128               -0.051              
C              7.604               5.47                -0.833              
C              6.967               4.297               -0.36               
C              7.239               6.013               -2.092              
C              6                   3.666               -1.125              
C              6.254               5.394               -2.839              
C              5.633               4.238               -2.381              
H              11.093              6.928               1.048               
H              10.001              4.52                -0.2                
H              8.475               6.002               0.909               
H              8.698               7.08                -0.297              
H              7.22                3.933               0.525               
H              7.693               6.827               -2.417              
H              5.563               2.829               -0.817              
H              5.982               5.792               -3.738              
H              4.923               3.789               -2.919              
N              10.657              4.685               -2.507              
C              11.206              4.816               -3.882              
C              10.2                4.486               -4.941              
O              10.553              4.496               -6.18               
C              12.469              4.02                -4.061              
C              13.724              4.738               -3.537              
C              13.976              4.851               -2.171              
C              14.643              5.246               -4.386              
C              15.089              5.466               -1.713              
C              15.807              5.867               -3.905              
C              15.997              5.98                -2.551              
H              10.434              3.792               -2.068              
H              11.457              5.792               -3.987              
H              12.394              3.176               -3.556              
H              12.616              3.858               -5.023              
H              13.311              4.463               -1.526              
H              14.514              5.19                -5.382              
H              15.23               5.535               -0.694              
H              16.483              6.221               -4.564              
H              16.818              6.448               -2.202              
N              8.945               4.28                -4.543              
C              7.935               3.921               -5.577              
C              8.276               2.647               -6.354              
O              8.784               1.639               -5.828              
H              8.747               4.379               -3.562              
H              7.035               3.808               -5.123              
H              7.847               4.697               -6.225              
N              8.03                2.682               -7.658              
C              8.141               1.501               -8.478              
C              9.538               1.401               -9.123              
O              9.694               1.503               -10.332             
C              7.054               1.516               -9.558              
C              6.913               0.089               -10.18              
C              5.847               0.076               -11.28              
C              5.572               -1.303              -11.81              
N              4.47                -1.204              -12.806             
H              7.757               3.618               -8.022              
H              8.002               0.68                -7.909              
H              6.199               1.745               -9.149              
H              7.321               2.124               -10.272             
H              7.789               -0.167              -10.569             
H              6.65                -0.539              -9.46               
H              5.002               0.456               -10.9               
H              6.164               0.658               -12.03              
H              6.383               -1.656              -12.256             
H              5.288               -1.894              -11.068             
H              3.591               -1.215              -12.33              
H              4.563               -0.351              -13.319             
H              4.52                -1.98               -13.434             
N              10.546              1.174               -8.328              
C              11.828              0.885               -8.906              
C              12.044              -0.603              -8.991              
O              11.625              -1.338              -8.134              
C              12.913              1.57                -8.193              
C              13.002              1.077               -6.784              
C              12.618              3.01                -8.164              
C              14.307              1.227               -6.281              
H              10.354              1.217               -7.321              
H              11.802              1.228               -9.852              
H              13.787              1.366               -8.645              
H              12.338              1.592               -6.238              
H              12.723              0.113               -6.784              
H              13.342              3.516               -7.68               
H              12.55               3.382               -9.098              
H              11.745              3.189               -7.693              
H              14.61               2.199               -6.282              
H              14.39               0.897               -5.322              
H              14.992              0.708               -6.827              
N              12.673              -1.043              -10.053             
C              12.836              -2.498              -10.184             
C              13.729              -3.054              -9.087              
O              14.591              -2.318              -8.564              
C              13.474              -2.664              -11.554             
C              13.12               -1.382              -12.278             
C              13.069              -0.32               -11.308             
H              11.938              -2.956              -10.184             
H              14.466              -2.76               -11.483             
H              13.096              -3.452              -12.038             
H              13.816              -1.215              -13.008             
H              12.23               -1.515              -12.763             
H              13.952              0.13                -11.157             
H              12.378              0.379               -11.511             
N              13.439              -4.291              -8.699              
C              14.272              -5.037              -7.74               
C              15.773              -4.877              -8                  
O              16.596              -4.601              -7.096              
C              13.907              -6.498              -7.838              
C              14.663              -7.404              -6.856              
C              14.243              -8.819              -7.126              
N              15.081              -9.833              -6.487              
C              14.709              -10.528             -5.387              
N              13.54               -10.351             -4.82               
N              15.527              -11.466             -4.918              
H              12.577              -4.692              -9.126              
H              14.069              -4.697              -6.808              
H              12.933              -6.603              -7.65               
H              14.111              -6.823              -8.758              
H              15.627              -7.316              -7.017              
H              14.411              -7.162              -5.939              
H              13.294              -8.936              -6.806              
H              14.258              -8.97               -8.124              
H              15.979              -10.029             -6.877              
H              12.881              -9.7                -5.21               
H              13.292              -10.864             -3.994              
H              16.388              -11.664             -5.383              
H              15.277              -11.978             -4.094              
N              16.163              -5.045              -9.274              
C              17.565              -4.892              -9.64               
C              18.097              -3.475              -9.399              
O              19.225              -3.329              -8.961              
C              17.796              -5.326              -11.124             
H              15.411              -5.281              -9.933              
H              18.12               -5.537              -9.086              
H              17.009              -5.853              -11.423             
H              17.897              -4.508              -11.678             
H              18.62               -5.878              -11.165             
N              17.323              -2.428              -9.658              
C              17.817              -1.074              -9.426              
C              17.921              -0.818              -7.936              
O              18.83               -0.136              -7.525              
C              16.934              0.014               -9.994              
C              16.667              -0.112              -11.488             
C              17.885              -0.298              -12.403             
C              17.589              -1.42               -13.434             
N              18.825              -1.884              -14.181             
H              16.386              -2.645              -10.021             
H              18.728              -0.987              -9.837              
H              16.053              -0.009              -9.52               
H              17.373              0.899               -9.832              
H              16.033              -0.901              -11.642             
H              16.16               0.719               -11.802             
H              18.048              0.535               -12.896             
H              18.656              -0.575              -11.863             
H              17.192              -2.202              -12.948             
H              16.921              -1.074              -14.097             
H              19.002              -1.249              -14.927             
H              19.592              -1.896              -13.548             
H              18.656              -2.798              -14.537             
N              16.978              -1.352              -7.17               
C              17.139              -1.297              -5.681              
C              18.487              -1.934              -5.238              
O              19.222              -1.344              -4.412              
C              15.95               -2.024              -5.002              
H              16.186              -1.776              -7.634              
H              17.135              -0.336              -5.4                
H              16.273              -2.89               -4.633              
H              15.599              -1.448              -4.27               
H              15.242              -2.184              -5.683              
N              18.841              -3.092              -5.824              
C              20.144              -3.707              -5.552              
C              21.296              -2.842              -5.988              
O              22.244              -2.67               -5.223              
C              20.246              -5.039              -6.208              
C              19.328              -6.057              -5.561              
C              19.37               -7.454              -6.194              
O              19.787              -7.633              -7.383              
O              18.902              -8.404              -5.531              
H              18.136              -3.492              -6.459              
H              20.216              -3.902              -4.558              
H              19.969              -4.953              -7.144              
H              21.162              -5.372              -6.111              
H              19.593              -6.162              -4.613              
H              18.395              -5.735              -5.637              
N              21.241              -2.303              -7.207              
C              22.215              -1.342              -7.637              
C              22.437              -0.184              -6.707              
O              23.593              0.08                -6.36               
C              21.924              -0.844              -9.06               
C              22.802              0.39                -9.427              
C              22.479              0.966               -10.808             
O              21.527              0.486               -11.5               
O              23.159              1.947               -11.211             
H              20.45               -2.639              -7.79               
H              23.115              -1.819              -7.802              
H              22.155              -1.55               -9.684              
H              21                  -0.555              -9.1                
H              22.625              1.086               -8.762              
H              23.736              0.097               -9.435              
N              21.361              0.455               -6.229              
H              20.454              -0.01               -6.465              
H              21.4241             1.30569             -5.69194            
