277
3.xyz
C              7.449               -11.968             0.952               
O              7.384               -10.732             1.174               
N              8.389               -12.753             1.483               
C              9.49                -12.208             2.314               
C              10.832              -12.582             1.693               
O              11.06               -13.72              1.285               
C              9.459               -12.757             3.765               
C              8.122               -12.494             4.475               
C              7.005               -13.297             4.2                 
C              7.981               -11.486             5.382               
C              5.757               -13.072             4.797               
C              6.737               -11.269             5.99                
C              5.629               -12.038             5.709               
H              8.291               -13.762             1.272               
H              9.412               -11.213             2.27                
H              9.586               -13.727             3.723               
H              10.16               -12.301             4.274               
H              7.099               -14.059             3.556               
H              8.747               -10.898             5.623               
H              4.983               -13.654             4.558               
H              6.663               -10.499             6.671               
H              4.757               -11.861             6.147               
N              11.742              -11.603             1.624               
C              13.146              -11.932             1.25                
C              13.775              -12.677             2.428               
O              13.616              -12.286             3.618               
C              14.009              -10.652             1.069               
C              13.428              -9.678              0.145               
C              14.416              -8.483              0.009               
C              14.192              -7.429              1.114               
N              15.04               -6.128              0.761               
H              11.416              -10.665             1.836               
H              13.128              -12.527             0.459               
H              14.114              -10.247             1.978               
H              14.903              -10.955             0.736               
H              13.31               -10.064             -0.76               
H              12.575              -9.315              0.491               
H              15.339              -8.832              0.088               
H              14.268              -8.054              -0.87               
H              13.252              -7.161              1.14                
H              14.522              -7.762              1.972               
H              15.476              -6.304              -0.103              
H              14.4                -5.383              0.711               
H              15.691              -6.012              1.49                
N              14.495              -13.746             2.113               
C              15.369              -14.35              3.122               
C              16.702              -13.624             2.994               
O              17.433              -13.806             2.01                
C              15.527              -15.848             2.865               
C              16.465              -16.492             3.893               
C              14.125              -16.498             2.965               
H              14.393              -14.093             1.157               
H              14.995              -14.154             4.013               
H              15.959              -15.967             1.973               
H              16.46               -17.482             3.767               
H              17.389              -16.14              3.76                
H              16.148              -16.267             4.812               
H              14.073              -17.008             3.818               
H              13.44               -15.776             2.95                
H              14.003              -17.108             2.188               
N              16.999              -12.814             3.997               
C              18.215              -11.984             4.018               
C              19.378              -12.761             4.625               
O              19.163              -13.703             5.394               
C              17.919              -10.706             4.83                
C              16.759              -9.873              4.283               
C              16.45               -8.778              5.249               
C              17.084              -9.303              2.869               
H              16.303              -12.808             4.776               
H              18.449              -11.744             3.073               
H              17.685              -10.982             5.748               
H              18.728              -10.144             4.811               
H              15.967              -10.467             4.169               
H              17.253              -8.187              5.375               
H              15.689              -8.217              4.908               
H              16.191              -9.162              6.141               
H              17.254              -10.065             2.252               
H              16.304              -8.771              2.556               
H              17.892              -8.726              2.939               
N              20.608              -12.381             4.261               
C              21.817              -12.991             4.777               
C              22.689              -11.946             5.488               
O              22.759              -10.777             5.038               
C              22.655              -13.558             3.629               
C              21.961              -14.534             2.709               
C              21.421              -15.701             3.508               
N              22.441              -16.723             3.839               
C              23.057              -17.532             2.951               
N              22.794              -17.398             1.64                
N              23.938              -18.455             3.39                
H              20.615              -11.595             3.563               
H              21.572              -13.702             5.445               
H              22.982              -12.784             3.075               
H              23.454              -14.02              4.03                
H              21.2                -14.086             2.258               
H              22.608              -14.885             2.044               
H              21.035              -15.349             4.363               
H              20.693              -16.139             2.976               
H              22.697              -16.824             4.81                
H              22.17               -16.7               1.315               
H              23.242              -18.017             0.987               
H              24.132              -18.508             4.368               
H              24.379              -19.063             2.744               
N              23.356              -12.341             6.571               
C              24.343              -11.434             7.228               
C              25.694              -11.662             6.56                
O              25.785              -12.406             5.541               
C              24.35               -11.653             8.763               
C              25.041              -12.946             9.201               
O              25.461              -13.8               8.367               
O              25.204              -13.112             10.445              
H              23.149              -13.285             6.91                
H              24.057              -10.508             7.019               
H              24.826              -10.882             9.175               
H              23.404              -11.678             9.068               
N              26.77               -11.052             7.09                
C              28.108              -11.242             6.464               
C              28.627              -12.668             6.576               
O              29.501              -13.068             5.808               
H              26.602              -10.479             7.912               
H              28.045              -10.978             5.488               
H              28.762              -10.606             6.906               
N              28.118              -13.451             7.53                
C              28.628              -14.791             7.772               
C              27.796              -15.858             7.057               
O              28.128              -17.022             7.149               
C              28.719              -15.103             9.244               
H              27.341              -13.023             8.071               
H              29.578              -14.847             7.429               
H              29.55               -15.632             9.43                
H              28.748              -14.252             9.772               
H              27.921              -15.637             9.53                
N              26.761              -15.464             6.318               
C              25.87               -16.41              5.673               
C              24.722              -16.942             6.529               
O              24.068              -17.886             6.11                
H              26.652              -14.43              6.247               
H              25.474              -15.977             4.827               
H              26.419              -17.21              5.329               
N              24.456              -16.39              7.72                
C              23.203              -16.673             8.419               
C              22.02               -16.084             7.72                
O              22.145              -15.148             6.94                
C              23.254              -16.141             9.837               
C              24.433              -16.88              10.557              
C              24.278              -16.796             12.01               
C              25.4                -17.515             12.698              
N              24.786              -18.047             13.981              
H              25.192              -15.767             8.087               
H              23.093              -17.681             8.477               
H              23.469              -15.2               9.826               
H              22.44               -16.374             10.303              
H              24.415              -17.829             10.247              
H              25.278              -16.442             10.258              
H              24.293              -15.841             12.302              
H              23.418              -17.219             12.289              
H              25.699              -18.271             12.161              
H              26.111              -16.891             12.931              
H              24.687              -17.292             14.621              
H              23.897              -18.439             13.768              
H              25.39               -18.742             14.356              
N              20.838              -16.657             7.982               
C              19.603              -16.262             7.299               
C              18.656              -15.556             8.243               
O              18.506              -15.991             9.399               
C              18.826              -17.523             6.915               
C              19.575              -18.405             5.951               
C              20.346              -19.454             6.407               
C              19.497              -18.177             4.55                
C              21.023              -20.317             5.49                
C              20.214              -19.044             3.61                
C              20.926              -20.098             4.113               
O              21.634              -20.972             3.261               
H              20.874              -17.402             8.709               
H              19.849              -15.625             6.556               
H              18.647              -18.042             7.743               
H              17.973              -17.244             6.488               
H              20.449              -19.633             7.38                
H              18.964              -17.441             4.189               
H              21.563              -21.076             5.847               
H              20.158              -18.837             2.653               
H              21.541              -20.64              2.33                
N              17.933              -14.557             7.752               
C              16.949              -13.93              8.626               
C              15.838              -13.267             7.807               
O              16.036              -12.988             6.619               
C              17.631              -12.905             9.6                 
C              18.275              -11.714             8.912               
C              17.591              -10.469             8.846               
C              19.585              -11.764             8.44                
C              18.173              -9.346              8.262               
C              20.17               -10.612             7.842               
C              19.466              -9.414              7.794               
H              18.114              -14.292             6.791               
H              16.515              -14.664             9.157               
H              16.928              -12.57              10.205              
H              18.332              -13.395             10.09               
H              16.674              -10.406             9.23                
H              20.119              -12.592             8.515               
H              17.639              -8.497              8.188               
H              21.099              -10.686             7.456               
H              19.906              -8.594              7.415               
N              14.7                -12.999             8.478               
C              13.644              -12.14              7.874               
C              13.689              -10.689             8.371               
O              13.605              -9.726              7.577               
C              12.261              -12.722             8.163               
C              12.009              -14.168             7.649               
C              10.517              -14.518             7.952               
C              12.346              -14.3               6.131               
H              14.625              -13.422             9.407               
H              13.781              -12.14              6.872               
H              12.13               -12.743             9.148               
H              11.581              -12.143             7.731               
H              12.588              -14.789             8.138               
H              9.938               -13.865             7.476               
H              10.339              -15.441             7.629               
H              10.374              -14.459             8.934               
H              13.305              -14.072             6                   
H              12.17               -15.237             5.849               
H              11.767              -13.67              5.624               
N              13.828              -10.536             9.69                
C              13.752              -9.227              10.288              
C              15                  -8.99               11.165              
O              15.832              -8.189              10.793              
C              12.508              -9.115              11.16               
C              11.219              -9.226              10.382              
C              10.404              -10.329             10.335              
C              10.612              -8.233              9.527               
N              9.305               -10.081             9.497               
C              9.4                 -8.803              9.015               
C              10.929              -6.915              9.177               
C              8.537               -8.095              8.183               
C              10.04               -6.203              8.292               
C              8.871               -6.808              7.837               
H              13.988              -11.412             10.214              
H              13.775              -8.541              9.56                
H              12.508              -9.849              11.826              
H              12.5                -8.23               11.608              
H              10.556              -11.182             10.816              
H              8.586               -10.734             9.297               
H              11.735              -6.456              9.513               
H              7.689               -8.529              7.848               
H              10.29               -5.291              8.028               
H              8.257               -6.284              7.239               
N              15.11               -9.687              12.31               
C              16.199              -9.391              13.288              
C              16.884              -10.664             13.768              
O              18.092              -10.709             13.788              
C              15.662              -8.594              14.565              
C              16.764              -8.445              15.649              
C              15.125              -7.236              14.183              
H              14.406              -10.418             12.454              
H              16.879              -8.822              12.813              
H              14.938              -9.143              14.959              
H              16.774              -9.268              16.208              
H              17.642              -8.325              15.196              
H              16.554              -7.65               16.209              
H              14.529              -6.893              14.912              
H              15.886              -6.599              14.05               
H              14.601              -7.309              13.332              
N              16.112              -11.699             14.128              
C              16.665              -12.93              14.702              
C              15.56               -13.709             15.492              
C              16.138              -15.035             16.043              
C              15.105              -12.865             16.673              
H              15.095              -11.553             13.965              
H              17.412              -12.688             15.306              
H              14.851              -13.952             14.849              
H              17.089              -14.888             16.3                
H              15.607              -15.311             16.838              
H              16.078              -15.731             15.333              
H              14.889              -11.942             16.355              
H              14.292              -13.279             17.081              
H              15.838              -12.824             17.352              
H              6.72938             -12.4475            0.363597            
H              17.0873             -13.5282            13.8668             
