153
1.xyz
C              43.847              21.996              -5.619              
O              45.064              21.824              -5.573              
N              42.96               21.104              -5.174              
C              43.385              19.784              -4.697              
C              42.324              18.769              -5.043              
O              41.204              19.13               -5.452              
C              43.644              19.795              -3.161              
C              42.343              19.831              -2.31               
C              42.742              19.961              -0.834              
N              41.529              20.041              -0.013              
C              41.521              20.282              1.313               
N              42.66               20.467              2.018               
N              40.347              20.302              1.948               
H              41.976              21.416              -5.194              
H              44.239              19.539              -5.158              
H              44.134              18.971              -2.926              
H              44.168              20.603              -2.943              
H              41.818              20.616              -2.562              
H              41.861              18.989              -2.429              
H              43.256              19.161              -0.586              
H              43.264              20.788              -0.733              
H              40.642              19.908              -0.465              
H              43.53               20.442              1.528               
H              42.617              20.623              2.992               
H              39.498              20.161              1.445               
H              40.322              20.461              2.937               
N              42.689              17.495              -4.828              
C              41.763              16.377              -4.995              
C              41.632              15.632              -3.657              
O              42.645              15.287              -3.011              
C              42.251              15.409              -6.106              
C              41.278              14.218              -6.24               
C              42.401              16.164              -7.416              
H              43.681              17.379              -4.535              
H              40.865              16.743              -5.228              
H              43.122              15.034              -5.819              
H              41.798              13.4                -6.469              
H              40.804              14.089              -5.373              
H              40.621              14.417              -6.962              
H              42.797              17.065              -7.236              
H              43.002              15.65               -8.028              
H              41.502              16.272              -7.841              
N              40.382              15.407              -3.246              
C              40.094              14.646              -2.039              
C              39.027              13.613              -2.373              
O              37.909              13.97               -2.695              
C              39.519              15.517              -0.896              
C              39.455              14.667              0.412               
C              40.36               16.733              -0.647              
H              39.647              15.818              -3.856              
H              40.921              14.16               -1.769              
H              38.587              15.744              -1.122              
H              40.368              14.62               0.802               
H              38.829              15.11               1.044               
H              39.129              13.757              0.18                
H              40.907              16.943              -1.462              
H              39.771              17.518              -0.437              
H              40.977              16.569              0.128               
N              39.346              12.33               -2.281              
C              38.294              11.286              -2.444              
C              37.524              11.457              -3.755              
O              36.275              11.421              -3.807              
C              37.342              11.247              -1.229              
C              36.718              9.852               -0.996              
H              40.327              12.114              -2.097              
H              38.773              10.403              -2.491              
H              37.857              11.494              -0.417              
H              36.604              11.893              -1.386              
O              37.232              8.833               -1.467              
N              35.6                9.821               -0.272              
H              35.213              10.675              0.079               
H              35.151              8.951               -0.081              
N              38.264              11.676              -4.836              
C              37.612              11.731              -6.133              
C              36.931              13.037              -6.494              
O              36.353              13.177              -7.586              
H              39.265              11.794              -4.68               
H              38.305              11.504              -6.864              
H              36.919              10.968              -6.19               
N              37.005              14.005              -5.59               
C              36.389              15.308              -5.815              
C              37.465              16.381              -5.901              
O              38.384              16.375              -5.108              
C              35.452              15.644              -4.645              
C              34.257              14.738              -4.49               
C              33.051              15.568              -4.063              
C              31.791              14.704              -3.837              
N              31.706              13.533              -4.781              
H              37.528              13.76               -4.727              
H              35.885              15.285              -6.682              
H              35.994              15.608              -3.8                
H              35.126              16.586              -4.776              
H              34.053              14.304              -5.358              
H              34.44               14.06               -3.791              
H              33.262              16.033              -3.208              
H              32.844              16.233              -4.774              
H              31.804              14.363              -2.893              
H              30.981              15.283              -3.961              
H              31.686              12.691              -4.249              
H              30.873              13.615              -5.322              
H              32.504              13.542              -5.378              
N              37.292              17.335              -6.806              
C              38.24               18.434              -6.946              
C              37.697              19.558              -6.062              
O              36.487              19.87               -6.107              
C              38.333              18.906              -8.395              
C              39.164              20.207              -8.504              
C              38.87               17.762              -9.268              
H              36.442              17.234              -7.393              
H              39.109              18.149              -6.577              
H              37.417              19.136              -8.711              
H              38.543              20.985              -8.506              
H              39.779              20.262              -7.723              
H              39.687              20.184              -9.351              
H              39.816              17.576              -9.011              
H              38.309              16.951              -9.118              
H              38.824              18.037              -10.226             
N              38.579              20.097              -5.239              
C              38.26               21.27               -4.394              
C              39.186              22.428              -4.714              
O              40.343              22.196              -5.124              
C              38.442              20.91               -2.932              
C              37.482              19.797              -2.453              
C              37.666              19.524              -0.968              
O              38.686              19.935              -0.422              
O              36.757              18.957              -0.328              
H              39.513              19.639              -5.227              
H              37.306              21.539              -4.554              
H              39.353              20.572              -2.805              
H              38.251              21.702              -2.389              
H              36.572              20.11               -2.591              
H              37.702              18.984              -2.938              
N              38.661              23.656              -4.575              
C              39.471              24.875              -4.755              
C              38.847              25.799              -5.83               
C              39.052              25.278              -7.251              
C              40.157              25.71               -8.02               
C              38.136              24.363              -7.824              
C              40.353              25.22               -9.343              
C              38.319              23.87               -9.136              
C              39.399              24.335              -9.89               
O              39.608              23.88               -11.176             
H              37.654              23.672              -4.334              
H              40.396              24.594              -5.02               
H              37.875              25.858              -5.658              
H              39.278              26.686              -5.761              
H              40.802              26.357              -7.644              
H              37.354              24.062              -7.296              
H              41.143              25.496              -9.863              
H              37.688              23.206              -9.51               
H              38.786              23.411              -11.493             
H              43.438              22.8762             -6.05594            
H              39.5306             25.4229             -3.8157             
