236
2.xyz
C              39.554              25.638              -3.447              
O              38.572              25.678              -2.692              
N              40.723              26.242              -3.189              
C              40.964              26.999              -1.939              
C              40.593              28.462              -2.219              
O              41.139              29.065              -3.159              
C              42.45               26.889              -1.589              
C              42.83               27.449              -0.242              
C              42.097              27.128              0.914               
C              43.987              28.25               -0.128              
C              42.505              27.578              2.193               
C              44.424              28.709              1.125               
C              43.673              28.421              2.29                
H              41.44               26.136              -3.931              
H              40.317              26.661              -1.272              
H              42.693              25.926              -1.598              
H              42.962              27.385              -2.28               
H              41.276              26.574              0.842               
H              44.497              28.49               -0.947              
H              42.006              27.326              3.002               
H              45.273              29.246              1.194               
H              43.932              28.784              3.166               
N              39.632              28.991              -1.461              
C              39.02               30.291              -1.777              
C              39.327              31.326              -0.703              
O              39.297              31.016              0.488               
C              37.487              30.143              -1.863              
C              36.902              29.069              -2.818              
C              35.332              29.183              -2.817              
C              37.511              29.244              -4.19               
H              39.356              28.418              -0.642              
H              39.4                30.614              -2.652              
H              37.149              29.928              -0.944              
H              37.111              31.025              -2.153              
H              37.151              28.173              -2.494              
H              35.089              30.092              -3.13               
H              34.972              28.492              -3.431              
H              35.013              29.032              -1.89               
H              38.506              29.137              -4.136              
H              37.14               28.555              -4.817              
H              37.297              30.158              -4.543              
N              39.59               32.54               -1.157              
C              39.553              33.728              -0.288              
C              38.193              34.376              -0.498              
O              37.823              34.651              -1.625              
C              40.657              34.678              -0.739              
C              40.572              36.125              -0.225              
C              40.967              36.219              1.189               
C              41.345              37.703              1.51                
N              40.024              38.457              1.509               
H              39.824              32.591              -2.17               
H              39.633              33.437              0.654               
H              41.543              34.301              -0.44               
H              40.654              34.712              -1.747              
H              41.176              36.689              -0.796              
H              39.626              36.439              -0.346              
H              40.218              35.981              1.783               
H              41.768              35.676              1.371               
H              41.737              37.739              2.395               
H              41.91               38.04               0.799               
H              39.891              38.858              0.609               
H              39.294              37.814              1.714               
H              40.066              39.168              2.203               
N              37.457              34.606              0.583               
C              36.109              35.152              0.474               
C              36.15               36.667              0.621               
O              36.872              37.204              1.489               
C              35.236              34.563              1.581               
C              35.123              33.047              1.542               
C              35.872              32.157              2.248               
C              34.17               32.291              0.797               
N              35.465              30.853              1.985               
C              34.413              30.907              1.098               
C              33.155              32.63               -0.117              
C              33.656              29.873              0.541               
C              32.359              31.584              -0.664              
C              32.633              30.213              -0.333              
H              37.91               34.371              1.483               
H              35.768              34.945              -0.446              
H              35.623              34.797              2.465               
H              34.313              34.92               1.497               
H              36.616              32.393              2.873               
H              35.863              30.034              2.369               
H              32.983              33.564              -0.384              
H              33.854              28.916              0.771               
H              31.623              31.806              -1.269              
H              32.07               29.509              -0.746              
N              35.39               37.34               -0.232              
C              35.338              38.824              -0.196              
C              34.834              39.313              1.156               
O              33.849              38.776              1.707               
C              34.487              39.326              -1.349              
C              34.485              40.858              -1.485              
C              35.847              41.371              -1.91               
C              35.814              42.86               -2.363              
N              37.096              43.131              -3.134              
H              34.854              36.775              -0.902              
H              36.266              39.174              -0.348              
H              34.84               38.947              -2.198              
H              33.547              39.032              -1.206              
H              33.808              41.115              -2.171              
H              34.243              41.255              -0.603              
H              36.481              41.305              -1.144              
H              36.182              40.832              -2.678              
H              35.047              42.992              -2.955              
H              35.788              43.431              -1.569              
H              37.857              42.741              -2.627              
H              37.021              42.706              -4.03               
H              37.208              44.115              -3.225              
N              35.528              40.301              1.729               
C              35.115              40.826              3.034               
C              35.686              40.084              4.234               
O              35.521              40.526              5.393               
H              36.336              40.642              1.199               
H              35.382              41.812              3.092               
H              34.093              40.811              3.087               
N              36.334              38.941              3.98                
C              36.873              38.14               5.075               
C              38.39               38.158              4.995               
O              38.946              38.463              3.944               
C              36.383              36.661              5.036               
C              34.913              36.506              5.39                
C              34.516              36.378              6.73                
C              33.953              36.507              4.386               
C              33.133              36.274              7.067               
C              32.58               36.369              4.703               
C              32.192              36.268              6.06                
H              36.413              38.692              2.986               
H              36.62               38.6                5.925               
H              36.513              36.332              4.12                
H              36.91               36.159              5.695               
H              35.184              36.36               7.453               
H              34.22               36.606              3.433               
H              32.88               36.206              8.03                
H              31.899              36.342              3.974               
H              31.216              36.192              6.279               
N              39.051              37.832              6.101               
C              40.512              37.726              6.098               
C              40.911              36.33               5.592               
O              40.052              35.441              5.44                
C              41.11               37.931              7.514               
O              40.776              36.822              8.356               
C              40.561              39.29               8.108               
H              38.466              37.666              6.934               
H              40.881              38.403              5.466               
H              42.127              37.977              7.433               
H              39.583              39.328              7.942               
H              40.753              39.303              9.082               
H              41.025              40.039              7.649               
H              40.287              36.118              7.83                
N              42.207              36.166              5.325               
C              42.775              34.849              4.933               
C              42.456              33.731              5.923               
O              42.338              32.539              5.56                
C              44.295              34.996              4.851               
C              44.734              35.727              3.587               
O              44.219              35.377              2.498               
O              45.594              36.627              3.707               
H              42.786              37.021              5.411               
H              42.343              34.602              4.05                
H              44.598              35.515              5.638               
H              44.694              34.09               4.847               
N              42.283              34.107              7.192               
C              41.974              33.108              8.215               
C              40.678              32.37               7.89                
O              40.494              31.222              8.34                
C              41.861              33.771              9.622               
H              42.382              35.111              7.375               
H              42.725              32.437              8.249               
H              41.038              34.326              9.644               
H              41.812              33.052              10.306              
H              42.664              34.337              9.77                
N              39.78               33.023              7.139               
C              38.498              32.408              6.772               
C              38.496              31.671              5.447               
O              37.443              31.237              4.981               
C              37.341              33.413              6.84                
C              36.91               33.674              8.284               
O              36.573              32.707              9.007               
O              36.98               34.832              8.692               
H              40.063              33.973              6.849               
H              38.285              31.722              7.499               
H              37.648              34.263              6.445               
H              36.576              33.036              6.346               
N              39.68               31.498              4.865               
C              39.761              30.825              3.583               
C              39.275              29.391              3.777               
O              39.518              28.797              4.832               
C              41.206              30.812              3.07                
C              41.675              32.205              2.586               
H              40.486              31.867              5.382               
H              39.116              31.269              2.968               
H              41.806              30.528              3.807               
H              41.268              30.186              2.303               
O              40.904              33.148              2.56                
N              42.986              32.332              2.245               
H              43.567              31.521              2.32                
H              43.333              33.198              1.937               
N              38.566              28.869              2.78                
C              38.157              27.447              2.839               
C              38.336              26.706              1.534               
O              38.397              27.326              0.472               
C              36.691              27.328              3.217               
O              35.868              28.053              2.284               
C              36.443              27.827              4.679               
H              38.337              29.496              2.009               
H              38.724              26.995              3.553               
H              36.409              26.343              3.179               
H              35.728              28.519              4.662               
H              36.16               27.052              5.236               
H              37.29               28.214              5.031               
H              35.065              27.505              2.032               
N              38.4                25.385              1.634               
C              38.381              24.534              0.458               
C              39.179              23.273              0.738               
C              40.645              23.543              0.877               
C              41.334              23.82               2.045               
C              41.62               23.495              -0.166              
N              42.686              23.959              1.776               
C              42.898              23.751              0.438               
C              41.557              23.254              -1.551              
C              44.092              23.807              -0.312              
C              42.758              23.309              -2.311              
C              44.005              23.57               -1.678              
H              38.463              25.023              2.606               
H              38.722              25.068              -0.313              
H              38.872              22.874              1.59                
H              39.067              22.641              -0.015              
H              40.92               23.906              2.942               
H              43.388              24.175              2.45                
H              40.702              23.048              -2.005              
H              44.96               24.011              0.137               
H              42.714              23.165              -3.282              
H              44.829              23.58               -2.236              
H              39.4961             25.1054             -4.35997            
H              37.3491             24.2697             0.249745            
