314
3.xyz
C              36.944              24.166              0.168               
O              36.216              23.761              1.092               
N              36.554              24.291              -1.096              
C              35.169              24.01               -1.503              
C              35.164              23.113              -2.735              
O              35.939              23.336              -3.659              
C              34.453              25.339              -1.848              
C              34.341              26.328              -0.635              
C              33.597              25.794              0.598               
O              32.839              24.784              0.54                
O              33.785              26.41               1.666               
H              37.289              24.596              -1.757              
H              34.686              23.556              -0.752              
H              34.975              25.795              -2.535              
H              33.541              25.13               -2.125              
H              35.263              26.553              -0.356              
H              33.857              27.129              -0.954              
N              34.228              22.144              -2.782              
C              34.165              21.286              -3.955              
C              33.614              22.02               -5.173              
O              32.84               22.983              -5.042              
C              33.246              20.151              -3.506              
C              32.308              20.791              -2.512              
C              33.19               21.809              -1.782              
H              35.074              20.89               -4.162              
H              32.734              19.777              -4.282              
H              33.769              19.416              -3.072              
H              31.561              21.25               -2.979              
H              31.957              20.114              -1.875              
H              32.665              22.618              -1.532              
H              33.6                21.404              -0.968              
N              34.052              21.586              -6.357              
C              33.566              22.127              -7.639              
C              32.072              22.439              -7.685              
O              31.655              23.498              -8.201              
C              33.812              21.119              -8.779              
C              35.224              20.972              -9.178              
C              35.42               20.042              -10.377             
O              34.526              19.198              -10.656             
O              36.465              20.179              -11.054             
H              34.769              20.83               -6.301              
H              34.094              22.975              -7.861              
H              33.475              20.244              -8.459              
H              33.289              21.438              -9.557              
H              35.588              21.852              -9.444              
H              35.742              20.58               -8.433              
N              31.265              21.498              -7.203              
C              29.782              21.639              -7.233              
C              29.286              22.868              -6.446              
O              28.146              23.327              -6.661              
C              29.102              20.386              -6.678              
C              29.724              19.871              -5.363              
C              30.927              18.809              -5.464              
O              31.819              18.691              -6.439              
O              30.962              18.061              -4.441              
H              31.738              20.666              -6.808              
H              29.479              21.711              -8.193              
H              28.166              20.607              -6.487              
H              29.194              19.669              -7.34               
H              30.097              20.643              -4.86               
H              29.019              19.417              -4.828              
N              30.12               23.379              -5.532              
C              29.754              24.567              -4.709              
C              30.053              25.872              -5.424              
O              29.634              26.962              -4.97               
C              30.488              24.547              -3.349              
C              29.829              23.665              -2.294              
O              30.128              23.738              -1.092              
N              28.895              22.825              -2.745              
H              31.027              22.893              -5.441              
H              28.757              24.517              -4.569              
H              31.419              24.215              -3.505              
H              30.523              25.485              -3.003              
H              28.671              22.797              -3.717              
H              28.419              22.221              -2.104              
N              30.817              25.801              -6.514              
C              31.402              26.99               -7.129              
C              30.617              27.599              -8.281              
O              30.111              26.872              -9.153              
C              32.827              26.693              -7.654              
C              33.742              25.931              -6.683              
C              35.083              25.687              -7.376              
C              33.956              26.747              -5.401              
H              30.958              24.839              -6.883              
H              31.505              27.706              -6.4                
H              32.736              26.142              -8.473              
H              33.259              27.56               -7.854              
H              33.324              25.063              -6.459              
H              35.495              26.565              -7.618              
H              35.69               25.192              -6.756              
H              34.934              25.147              -8.203              
H              33.073              26.907              -4.963              
H              34.552              26.237              -4.783              
H              34.38               27.62               -5.635              
N              30.591              28.934              -8.315              
C              30.139              29.653              -9.487              
C              31.054              30.861              -9.712              
O              30.636              32.032              -9.706              
C              28.644              29.993              -9.37               
C              28.104              30.691              -10.63              
O              28.742              30.623              -11.725             
O              27.06               31.375              -10.5               
H              30.918              29.393              -7.442              
H              30.256              29.052              -10.278             
H              28.144              29.149              -9.243              
H              28.524              30.601              -8.601              
N              32.331              30.556              -9.912              
C              33.341              31.603              -10.124             
C              34.29               31.194              -11.244             
O              35.531              31.157              -11.056             
C              34.095              31.949              -8.822              
S              34.692              30.53               -7.905              
H              32.552              29.546              -9.907              
H              32.867              32.44               -10.403             
H              34.873              32.526              -9.071              
H              33.467              32.469              -8.242              
H              35.413              30.814              -7.269              
N              33.719              30.963              -12.437             
C              34.541              30.41               -13.53              
C              35.636              31.355              -14.007             
O              36.732              30.884              -14.38              
C              33.502              30.105              -14.638             
C              32.374              31.122              -14.362             
C              32.302              31.151              -12.843             
H              34.935              29.514              -13.252             
H              33.886              30.261              -15.538             
H              33.155              29.182              -14.555             
H              32.626              32.005              -14.727             
H              31.529              30.795              -14.756             
H              31.959              32.025              -12.514             
H              31.737              30.408              -12.494             
N              35.407              32.675              -13.963             
C              36.476              33.599              -14.361             
C              37.66               33.564              -13.38              
O              38.823              33.626              -13.788             
C              35.959              35.032              -14.553             
C              34.868              35.2                -15.64              
C              34.699              36.672              -16.055             
O              34.247              37.497              -15.209             
O              35.03               37.009              -17.22              
H              34.482              32.959              -13.648             
H              36.804              33.358              -15.284             
H              35.563              35.329              -13.701             
H              36.72               35.597              -14.821             
H              35.15               34.703              -16.428             
H              34.021              34.901              -15.266             
N              37.37               33.426              -12.086             
C              38.446              33.349              -11.116             
C              39.224              32.027              -11.228             
O              40.473              32.019              -11.089             
C              37.901              33.499              -9.699              
C              37.276              34.841              -9.308              
C              36.908              34.732              -7.784              
C              38.307              35.957              -9.505              
H              36.372              33.382              -11.857             
H              39.094              34.105              -11.284             
H              37.196              32.796              -9.565              
H              38.655              33.327              -9.06               
H              36.453              34.987              -9.814              
H              37.742              34.556              -7.276              
H              36.499              35.591              -7.502              
H              36.265              33.984              -7.674              
H              38.585              35.983              -10.464             
H              37.898              36.832              -9.25               
H              39.103              35.776              -8.928              
N              38.485              30.952              -11.494             
C              39.118              29.611              -11.679             
C              40.028              29.66               -12.914             
O              41.2                29.257              -12.851             
C              38.09               28.495              -11.785             
C              37.45               28.237              -10.403             
C              38.762              27.165              -12.327             
C              36.207              27.38               -10.411             
H              37.472              31.106              -11.561             
H              39.708              29.482              -10.891             
H              37.366              28.786              -12.398             
H              38.144              27.805              -9.818              
H              37.226              29.131              -10                 
H              38.055              26.479              -12.403             
H              39.16               27.366              -13.209             
H              39.455              26.891              -11.678             
H              36.424              26.482              -10.793             
H              35.871              27.272              -9.476              
H              35.504              27.819              -10.97              
N              39.504              30.184              -14.019             
C              40.314              30.341              -15.235             
C              41.61               31.152              -15.031             
O              42.703              30.725              -15.488             
C              39.459              30.958              -16.346             
C              40.156              31.088              -17.69              
C              39.34               31.936              -18.695             
O              38.548              32.836              -18.287             
O              39.522              31.703              -19.908             
H              38.514              30.462              -13.953             
H              40.555              29.422              -15.6               
H              38.671              30.377              -16.473             
H              39.199              31.864              -16.055             
H              41.01               31.547              -17.56              
H              40.253              30.198              -18.085             
N              41.482              32.299              -14.36              
C              42.596              33.176              -14.058             
C              43.632              32.438              -13.204             
O              44.833              32.567              -13.445             
C              42.109              34.433              -13.323             
H              40.493              32.508              -14.069             
H              43.037              33.457              -14.915             
H              41.224              34.707              -13.693             
H              42.02               34.23               -12.351             
H              42.772              35.167              -13.455             
N              43.151              31.679              -12.21              
C              44.058              30.928              -11.339             
C              44.845              29.888              -12.165             
O              46.09               29.844              -12.086             
C              43.309              30.216              -10.198             
C              44.181              29.206              -9.515              
C              45.306              29.631              -8.795              
C              43.951              27.848              -9.706              
C              46.195              28.702              -8.207              
C              44.851              26.884              -9.121              
C              45.955              27.339              -8.384              
H              42.127              31.673              -12.119             
H              44.732              31.577              -10.985             
H              43.05               30.896              -9.543              
H              42.544              29.75               -10.591             
H              45.49               30.601              -8.689              
H              43.186              27.523              -10.232             
H              46.972              29.029              -7.682              
H              44.672              25.914              -9.253              
H              46.585              26.67               -7.975              
N              44.128              29.089              -12.954             
C              44.797              28.012              -13.745             
C              45.778              28.624              -14.776             
O              46.914              28.138              -14.914             
C              43.784              27.048              -14.387             
C              42.892              26.247              -13.397             
C              41.741              25.487              -14.064             
C              43.709              25.303              -12.519             
H              43.121              29.26               -12.978             
H              45.32               27.442              -13.114             
H              43.173              27.579              -14.96              
H              44.287              26.385              -14.924             
H              42.514              26.894              -12.718             
H              42.115              24.833              -14.72              
H              41.219              25.001              -13.365             
H              41.148              26.137              -14.537             
H              44.368              25.833              -11.985             
H              43.097              24.811              -11.901             
H              44.196              24.649              -13.098             
N              45.366              29.713              -15.433             
C              46.277              30.403              -16.37              
C              47.541              30.91               -15.69              
O              48.634              30.821              -16.28              
C              45.578              31.569              -17.088             
C              44.51               31.085              -18.062             
H              44.408              30.016              -15.241             
H              46.56               29.717              -17.056             
H              45.146              32.144              -16.404             
H              46.262              32.079              -17.595             
O              44.55               29.946              -18.52              
N              43.535              31.948              -18.361             
H              43.546              32.861              -17.949             
H              42.808              31.685              -18.987             
N              47.395              31.392              -14.446             
C              48.495              31.934              -13.636             
C              49.555              30.887              -13.318             
O              50.701              31.228              -13.028             
C              47.976              32.572              -12.318             
O              47.705              31.616              -11.288             
H              46.405              31.348              -14.093             
H              48.935              32.672              -14.17              
H              48.668              33.216              -11.987             
H              47.133              33.073              -12.523             
H              47.091              30.917              -11.645             
N              49.162              29.623              -13.38              
C              50.05               28.513              -13.031             
C              50.723              27.922              -14.266             
O              51.624              27.095              -14.121             
C              49.283              27.42               -12.295             
C              48.676              27.872              -10.942             
C              49.713              28.541              -10.053             
H              48.179              29.486              -13.694             
H              50.774              28.874              -12.429             
H              48.527              27.103              -12.868             
H              49.899              26.655              -12.103             
H              47.947              28.518              -11.132             
H              48.321              27.069              -10.479             
O              50.64               27.879              -9.57               
N              49.598              29.864              -9.873              
H              50.243              30.365              -9.285              
H              48.839              30.351              -10.348             
N              50.237              28.344              -15.44              
C              50.811              28.1                -16.801             
C              49.846              27.354              -17.72              
O              48.893              27.939              -18.282             
C              52.211              27.411              -16.755             
C              53.281              28.182              -16.011             
C              54.602              27.449              -16.015             
C              55.693              28.198              -15.276             
N              56.967              27.44               -15.307             
O              49.822              26.164              -18.049             
H              49.337              28.914              -15.331             
H              51.03               28.997              -17.21              
H              52.088              26.521              -16.316             
H              52.506              27.277              -17.702             
H              53.403              29.076              -16.448             
H              52.986              28.319              -15.063             
H              54.479              26.555              -15.578             
H              54.897              27.313              -16.963             
H              55.827              29.089              -15.71              
H              55.41               28.332              -14.326             
H              57.551              27.797              -16.037             
H              57.435              27.538              -14.428             
H              56.776              26.473              -15.476             
H              37.947              24.4229             0.370416            
