222
2.xyz
C              13.359              -7.232              1.731               
C              14.259              -6.138              2.28                
O              13.807              -5.275              3.055               
C              12.272              -6.68               0.801               
C              11.222              -7.76               0.492               
C              12.906              -6.145              -0.446              
C              10.091              -7.297              -0.427              
H              13.946              -7.882              1.273               
H              11.811              -5.933              1.27                
H              11.683              -8.536              0.065               
H              10.822              -8.063              1.357               
H              12.209              -5.736              -1.04               
H              13.585              -5.444              -0.215              
H              13.363              -6.884              -0.946              
H              10.48               -7.006              -1.297              
H              9.461               -8.056              -0.572              
H              9.614               -6.536              0.005               
N              15.536              -6.179              1.911               
C              16.51               -5.187              2.357               
C              17.268              -4.666              1.166               
O              17.372              -5.317              0.126               
C              17.462              -5.818              3.389               
C              16.837              -6.17               4.731               
C              17.623              -6.89               5.697               
O              17.852              -8.031              5.443               
O              17.961              -6.258              6.705               
H              15.779              -6.974              1.281               
H              16.034              -4.435              2.818               
H              17.814              -6.654              2.993               
H              18.189              -5.168              3.557               
H              16.531              -5.292              5.142               
H              15.997              -6.705              4.525               
N              17.829              -3.479              1.34                
C              18.643              -2.882              0.308               
C              19.943              -2.403              0.888               
O              20.001              -1.937              2.029               
C              18.064              -1.729              -0.463              
C              18.121              -0.402              0.098               
C              17.442              0.679               -0.755              
C              17.53               2.01                0.017               
N              17.139              3.15                -0.754              
H              17.635              -3.033              2.257               
H              18.834              -3.573              -0.401              
H              18.524              -1.726              -1.388              
H              17.08               -1.97               -0.667              
H              17.678              -0.375              1.017               
H              19.087              -0.105              0.238               
H              17.929              0.775               -1.595              
H              16.501              0.45                -0.872              
H              16.946              1.917               0.844               
H              18.488              2.107               0.342               
H              16.151              3.124               -0.96               
H              17.331              4.006               -0.254              
H              17.639              3.181               -1.63               
N              20.995              -2.457              0.059               
C              22.302              -1.865              0.376               
C              22.784              -1.248              -0.927              
O              23.161              -1.959              -1.856              
C              23.254              -2.927              0.871               
C              24.648              -2.443              1.33                
H              20.804              -2.96               -0.838              
H              22.14               -1.127              1.008               
H              22.832              -3.409              1.654               
H              23.401              -3.607              0.136               
O              25.388              -3.23               1.982               
N              24.951              -1.243              0.997               
H              24.324              -0.65               0.477               
H              25.855              -0.846              1.255               
N              22.638              0.072               -0.992              
C              22.905              0.686               -2.269              
C              21.961              0.179               -3.298              
O              20.776              -0.014              -3.121              
H              22.354              0.544               -0.151              
H              22.816              1.689               -2.183              
H              23.857              0.485               -2.544              
N              22.257              -0.158              -4.546              
C              21.125              -0.59               -5.426              
C              21.155              -2.177              -5.429              
O              20.535              -2.788              -6.392              
C              21.191              -0.005              -6.863              
C              22.376              -0.383              -7.541              
O              23.301              -0.875              -6.798              
O              22.572              -0.067              -8.773              
H              23.213              -0.108              -4.836              
H              20.292              -0.335              -4.978              
H              20.372              -0.342              -7.331              
H              21.125              0.988               -6.755              
N              21.776              -2.872              -4.417              
C              21.584              -4.31               -4.31               
C              20.44               -4.609              -3.327              
O              20.474              -4.188              -2.173              
C              22.839              -4.948              -3.835              
C              23.992              -4.607              -4.779              
C              22.635              -6.487              -3.734              
C              23.793              -4.891              -6.216              
H              22.345              -2.299              -3.797              
H              21.272              -4.625              -5.206              
H              23.075              -4.584              -2.935              
H              24.207              -3.62               -4.655              
H              24.812              -5.112              -4.449              
H              23.471              -6.895              -3.387              
H              21.88               -6.666              -3.114              
H              22.429              -6.839              -4.639              
H              23.007              -4.374              -6.568              
H              24.61               -4.629              -6.74               
H              23.622              -5.871              -6.357              
N              19.409              -5.292              -3.79               
C              18.35               -5.776              -2.913              
C              18.699              -7.229              -2.544              
O              19.325              -7.974              -3.299              
C              16.961              -5.802              -3.536              
C              16.194              -4.46               -3.62               
C              16.938              -3.458              -4.503              
C              14.784              -4.551              -4.046              
H              19.415              -5.454              -4.819              
H              18.346              -5.239              -2.082              
H              17.044              -6.143              -4.473              
H              16.39               -6.426              -3.003              
H              16.102              -4.088              -2.698              
H              17.03               -3.834              -5.424              
H              16.422              -2.603              -4.54               
H              17.844              -3.287              -4.118              
H              14.254              -5.124              -3.407              
H              14.359              -3.637              -4.074              
H              14.714              -4.959              -4.966              
N              18.242              -7.603              -1.36               
C              18.233              -8.973              -0.89               
C              16.834              -9.307              -0.415              
O              16.251              -8.556              0.376               
C              19.277              -9.181              0.211               
O              20.582              -8.901              -0.316              
C              19.254              -10.603             0.739               
H              17.877              -6.801              -0.775              
H              18.462              -9.577              -1.652              
H              19.096              -8.525              0.97                
H              20.065              -11.1               0.42                
H              19.249              -10.596             1.742               
H              18.432              -11.076             0.412               
H              20.511              -8.56               -1.259              
N              16.304              -10.408             -0.916              
C              14.946              -10.849             -0.613              
C              15.05               -12.244             -0.026              
O              15.437              -13.197             -0.696              
C              14.073              -10.767             -1.872              
C              12.563              -10.927             -1.629              
C              11.78               -10.26              -2.742              
C              12.161              -12.377             -1.52               
H              16.942              -10.944             -1.554              
H              14.559              -10.243             0.07                
H              14.212              -9.877              -2.283              
H              14.352              -11.491             -2.485              
H              12.333              -10.504             -0.755              
H              12.015              -10.681             -3.619              
H              10.798              -10.369             -2.576              
H              12.003              -9.284              -2.774              
H              12.646              -12.809             -0.756              
H              11.173              -12.446             -1.362              
H              12.392              -12.86              -2.368              
N              14.708              -12.334             1.264               
C              14.717              -13.578             2.001               
C              13.276              -14.059             2.166               
O              12.394              -13.246             2.461               
C              15.292              -13.375             3.424               
C              16.715              -12.866             3.463               
C              17.156              -12.607             4.911               
C              18.609              -12.169             4.976               
N              19.047              -12.082             6.432               
H              14.432              -11.414             1.69                
H              15.224              -14.267             1.485               
H              14.702              -12.72              3.896               
H              15.252              -14.258             3.893               
H              17.324              -13.547             3.066               
H              16.779              -12.011             2.957               
H              16.586              -11.888             5.29                
H              17.05               -13.447             5.428               
H              19.179              -12.835             4.516               
H              18.707              -11.273             4.565               
H              19.071              -13.002             6.809               
H              19.951              -11.67              6.464               
H              18.391              -11.521             6.925               
N              13.064              -15.359             2.007               
C              11.758              -15.953             2.312               
C              12.016              -17.087             3.279               
O              12.747              -18.031             2.967               
C              11.059              -16.453             1.015               
O              11.057              -15.42              0.012               
C              9.622               -16.824             1.29                
H              13.871              -15.902             1.661               
H              11.199              -15.269             2.76                
H              11.584              -17.25              0.651               
H              9.579               -17.695             1.788               
H              9.181               -16.112             1.845               
H              9.118               -16.92              0.426               
H              11.959              -14.98              -0.034              
N              11.473              -16.962             4.497               
C              11.733              -17.888             5.585               
C              10.456              -18.581             5.973               
O              9.379               -17.985             6.024               
C              12.256              -17.124             6.794               
C              13.618              -16.557             6.606               
H              10.84               -16.13              4.592               
H              12.39               -18.577             5.265               
H              11.622              -16.368             7.003               
H              12.276              -17.744             7.589               
N              14.157              -15.659             7.494               
C              14.533              -16.797             5.632               
C              15.358              -15.356             7.061               
N              15.646              -16.04              5.942               
H              13.717              -15.309             8.308               
H              14.427              -17.396             4.851               
H              15.99               -14.701             7.495               
N              10.567              -19.885             6.283               
C              9.389               -20.593             6.77                
C              8.446               -20.973             5.621               
O              8.901               -22.1               4.894               
H              11.487              -20.296             6.153               
H              8.921               -20.003             7.43                
H              7.543               -21.175             6.003               
H              8.373               -20.192             4.998               
H              9.761               -21.877             4.437               
H              12.955              -7.73788            2.57608             
H              9.70066             -21.5014            7.28992             
