217
2.xyz
C              -6.208              -2.079              22.957              
O              -5.702              -2.058              21.836              
N              -5.509              -1.859              24.064              
C              -4.145              -1.312              24.02               
C              -3.134              -2.047              23.105              
O              -2.392              -1.38               22.388              
C              -3.587              -1.06               25.435              
C              -3.546              -2.253              26.303              
C              -4.595              -2.833              26.951              
C              -2.395              -3.037              26.618              
N              -4.171              -3.938              27.64               
C              -2.822              -4.085              27.454              
C              -1.043              -2.958              26.269              
C              -1.945              -5.044              27.957              
C              -0.17               -3.913              26.768              
C              -0.625              -4.943              27.604              
H              -5.995              -2.1                24.947              
H              -4.212              -0.35               23.674              
H              -2.656              -0.712              25.344              
H              -4.162              -0.375              25.879              
H              -5.538              -2.501              26.928              
H              -4.748              -4.541              28.19               
H              -0.708              -2.233              25.673              
H              -2.283              -5.776              28.556              
H              0.794               -3.862              26.527              
H              0.036               -5.613              27.944              
N              -3.133              -3.401              23.068              
C              -2.177              -4.033              22.143              
C              -2.521              -3.854              20.657              
O              -1.679              -4.118              19.793              
C              -2.247              -5.522              22.523              
C              -2.932              -5.564              23.838              
C              -3.884              -4.419              23.817              
H              -1.231              -3.698              22.329              
H              -2.762              -6.035              21.826              
H              -1.32               -5.911              22.58               
H              -3.418              -6.438              23.956              
H              -2.266              -5.468              24.587              
H              -4.731              -4.648              23.341              
H              -4.094              -4.092              24.738              
N              -3.745              -3.406              20.383              
C              -4.258              -3.238              19.023              
C              -4.232              -1.779              18.542              
O              -4.687              -1.483              17.436              
C              -5.692              -3.773              18.947              
C              -5.822              -5.213              19.349              
C              -6.062              -5.562              20.669              
C              -5.704              -6.219              18.404              
C              -6.176              -6.894              21.045              
C              -5.824              -7.553              18.768              
C              -6.056              -7.89               20.093              
H              -4.317              -3.181              21.234              
H              -3.64               -3.754              18.409              
H              -6.248              -3.231              19.559              
H              -5.996              -3.686              18.011              
H              -6.156              -4.851              21.362              
H              -5.531              -5.982              17.447              
H              -6.344              -7.124              22.01               
H              -5.74               -8.275              18.063              
H              -6.137              -8.85               20.361              
N              -3.689              -0.884              19.363              
C              -3.722              0.56                19.089              
C              -2.567              1.066               18.22               
O              -2.501              2.254               17.904              
C              -3.771              1.343               20.407              
C              -5.139              1.297               21.081              
C              -5.138              1.859               22.492              
H              -3.241              -1.288              20.212              
H              -4.589              0.759               18.594              
H              -3.102              0.955               21.036              
H              -3.548              2.298               20.221              
H              -5.785              1.827               20.527              
H              -5.445              0.343               21.117              
O              -4.086              2.15                23.06               
N              -6.327              2                   23.073              
H              -6.404              2.357               24.021              
H              -7.162              1.744               22.549              
N              -1.668              0.169               17.832              
C              -0.527              0.519               16.992              
C              -0.054              -0.735              16.271              
O              -0.395              -1.844              16.687              
C              0.611               1.109               17.838              
C              1.153               0.194               18.937              
C              0.215               0.068               20.123              
H              -1.846              -0.8                18.176              
H              -0.837              1.171               16.304              
H              1.375               1.344               17.228              
H              0.281               1.954               18.275              
H              1.301               -0.716              18.548              
H              2.026               0.565               19.256              
O              -0.196              1.067               20.711              
N              -0.124              -1.165              20.483              
H              -0.737              -1.328              21.276              
H              0.242               -1.951              19.947              
N              0.731               -0.574              15.192              
C              1.258               -1.752              14.511              
C              2.03                -2.678              15.453              
O              2.67                -2.214              16.4                
C              2.199               -1.155              13.461              
C              1.651               0.185               13.186              
C              1.078               0.67                14.48               
H              0.515               -2.261              14.046              
H              3.137               -1.103              13.822              
H              2.208               -1.727              12.634              
H              2.375               0.81                12.859              
H              0.936               0.142               12.472              
H              1.747               1.198               15.007              
H              0.258               1.23                14.336              
N              1.954               -3.977              15.193              
C              2.755               -4.946              15.929              
C              4.228               -4.637              15.689              
O              4.703               -4.691              14.554              
C              2.437               -6.39               15.486              
C              3.425               -7.375              16.089              
C              1.013               -6.758              15.869              
H              1.291               -4.235              14.439              
H              2.57                -4.832              16.903              
H              2.548               -6.432              14.496              
H              4.309               -6.925              16.221              
H              3.081               -7.696              16.972              
H              3.539               -8.155              15.473              
H              0.373               -6.236              15.305              
H              0.872               -7.737              15.718              
H              0.863               -6.542              16.834              
N              4.937               -4.276              16.754              
C              6.377               -4.056              16.673              
C              7.074               -5.38               16.967              
O              7.318               -5.732              18.126              
C              6.826               -2.956              17.64               
C              8.267               -2.534              17.417              
O              9.08                -3.376              16.988              
O              8.588               -1.354              17.674              
H              4.389               -4.167              17.628              
H              6.589               -3.817              15.73               
H              6.237               -2.168              17.503              
H              6.734               -3.304              18.565              
N              7.39                -6.108              15.899              
C              7.973               -7.443              16.006              
C              9.403               -7.403              16.53               
O              9.884               -8.38               17.105              
C              7.926               -8.151              14.656              
H              7.187               -5.647              14.986              
H              7.411               -7.991              16.645              
H              8.704               -7.861              14.101              
H              7.967               -9.139              14.797              
H              7.076               -7.916              14.187              
N              10.088              -6.282              16.324              
C              11.433              -6.116              16.869              
C              11.365              -6.022              18.392              
O              11.993              -6.817              19.094              
C              12.145              -4.878              16.286              
C              13.488              -4.668              16.968              
C              12.325              -5.036              14.785              
H              9.602               -5.564              15.764              
H              11.969              -6.928              16.633              
H              11.585              -4.083              16.493              
H              13.926              -5.553              17.124              
H              14.074              -4.105              16.386              
H              13.35               -4.207              17.845              
H              13.197              -5.49               14.602              
H              11.576              -5.588              14.418              
H              12.319              -4.133              14.354              
N              10.575              -5.079              18.899              
C              10.469              -4.865              20.347              
C              9.823               -6.043              21.077              
O              10.228              -6.384              22.188              
C              9.716               -3.57               20.659              
C              10.483              -2.308              20.292              
C              10.171              -1.145              21.228              
C              8.689               -0.808              21.275              
N              8.444               0.416               22.091              
H              10.053              -4.521              18.201              
H              11.401              -4.725              20.722              
H              8.86                -3.576              20.148              
H              9.526               -3.549              21.638              
H              11.467              -2.5                20.335              
H              10.244              -2.04               19.355              
H              10.472              -1.387              22.15               
H              10.671              -0.338              20.915              
H              8.361               -0.653              20.343              
H              8.192               -1.576              21.679              
H              9.32                0.803               22.377              
H              7.945               1.085               21.541              
H              7.905               0.173               22.896              
N              8.833               -6.669              20.448              
C              8.197               -7.863              21.013              
C              9.026               -9.138              20.79               
O              8.676               -10.201             21.305              
C              6.791               -8.041              20.429              
C              5.784               -6.934              20.763              
C              4.476               -7.148              20.01               
C              5.528               -6.845              22.268              
H              8.554               -6.25               19.542              
H              8.091               -7.728              22.01               
H              6.874               -8.077              19.439              
H              6.421               -8.894              20.778              
H              6.175               -6.051              20.504              
H              4.083               -8.03               20.269              
H              3.835               -6.417              20.242              
H              4.653               -7.137              19.026              
H              6.387               -6.645              22.739              
H              4.869               -6.116              22.449              
H              5.162               -7.716              22.593              
N              10.114              -9.026              20.026              
C              10.994              -10.156             19.713              
C              11.758              -10.618             20.963              
C              12.975              -11.473             20.63               
H              10.287              -8.058              19.667              
H              11.662              -9.832              19.031              
H              12.065              -9.811              21.459              
H              11.139              -11.155             21.528              
O              13.314              -11.677             19.462              
N              13.64               -11.972             21.664              
H              13.331              -11.785             22.598              
H              14.452              -12.538             21.513              
H              10.4432             -10.989             19.2498             
H              -7.25428            -2.26815            23.0757             
