190
1.xyz
C              -10.71              -7.642              -3.07               
C              -9.879              -7.615              -4.351              
O              -10.394             -7.797              -5.46               
C              -11.471             -6.331              -2.908              
C              -12.522             -6.103              -3.952              
O              -13.57              -6.772              -3.912              
O              -12.333             -5.242              -4.811              
H              -11.347             -8.421              -3.144              
H              -11.904             -6.34               -2.005              
H              -10.805             -5.585              -2.947              
N              -8.599              -7.414              -4.191              
C              -7.681              -7.373              -5.323              
C              -7.714              -6.051              -6.083              
O              -7.187              -5.951              -7.187              
H              -8.286              -7.286              -3.205              
H              -6.734              -7.542              -4.993              
H              -7.906              -8.13               -5.965              
N              -8.335              -5.049              -5.505              
C              -8.439              -3.739              -6.142              
C              -7.679              -2.71               -5.359              
O              -7.303              -2.967              -4.218              
C              -9.891              -3.311              -6.314              
C              -10.649             -4.069              -7.376              
C              -10.079             -3.857              -8.762              
H              -8.742              -5.258              -4.57               
H              -8.025              -3.812              -7.058              
H              -10.368             -3.436              -5.437              
H              -9.911              -2.332              -6.551              
H              -10.614             -5.047              -7.165              
H              -11.603             -3.765              -7.375              
O              -10.463             -2.922              -9.46               
N              -9.191              -4.716              -9.175              
H              -8.769              -4.649              -10.106             
H              -8.903              -5.481              -8.555              
N              -7.489              -1.547              -5.927              
C              -6.735              -0.519              -5.254              
C              -7.652              0.495               -4.596              
O              -8.638              0.952               -5.192              
C              -5.73               0.159               -6.19               
S              -6.451              0.965               -7.631              
H              -7.911              -1.433              -6.866              
H              -6.177              -0.95               -4.53               
H              -5.23               0.846               -5.658              
H              -5.086              -0.541              -6.507              
H              -6.487              1.954               -7.48               
N              -7.331              0.819               -3.374              
C              -8.094              1.731               -2.551              
C              -7.12               2.677               -1.897              
O              -5.931              2.343               -1.787              
C              -8.865              0.949               -1.474              
C              -9.915              -0.016              -2.011              
C              -9.548              -1.247              -2.549              
C              -11.266             0.299               -1.976              
C              -10.481             -2.123              -3.039              
C              -12.211             -0.576              -2.47               
C              -11.81              -1.788              -3.001              
O              -12.754             -2.646              -3.529              
H              -6.446              0.351               -3.022              
H              -8.701              2.259               -3.14               
H              -8.206              0.422               -0.939              
H              -9.327              1.608               -0.881              
H              -8.571              -1.494              -2.576              
H              -11.556             1.172               -1.586              
H              -10.194             -3.008              -3.424              
H              -13.184             -0.337              -2.446              
H              -12.294             -3.455              -3.889              
N              -7.583              3.835               -1.479              
C              -6.7                4.803               -0.869              
C              -6.323              4.361               0.531               
O              -7.188              4.107               1.392               
C              -7.318              6.204               -0.846              
C              -6.381              7.264               -0.269              
C              -6.906              8.664               -0.405              
O              -7.659              9.127               0.472               
O              -6.553              9.35                -1.399              
H              -8.597              3.986               -1.62               
H              -5.867              4.905               -1.424              
H              -7.519              6.459               -1.77               
H              -8.114              6.173               -0.277              
H              -6.265              7.072               0.692               
H              -5.525              7.21                -0.757              
N              -5.053              4.265               0.75                
C              -4.518              3.828               1.993               
C              -3.325              4.669               2.366               
O              -2.483              4.971               1.526               
C              -4.126              2.383               1.895               
H              -4.446              4.538               -0.072              
H              -5.217              3.927               2.715               
H              -4.289              1.921               2.771               
H              -4.665              1.927               1.183               
H              -3.153              2.304               1.664               
N              -3.236              5.019               3.607               
C              -2.195              5.878               4.071               
C              -1.103              5.063               4.734               
O              -1.381              4.157               5.52                
C              -2.77               6.931               5.007               
C              -1.789              7.998               5.446               
C              -2.462              9.072               6.245               
O              -2.968              10.039              5.642               
O              -2.514              8.965               7.484               
H              -3.98               4.626               4.234               
H              -1.8                6.399               3.303               
H              -3.511              7.383               4.533               
H              -3.093              6.469               5.819               
H              -1.111              7.575               6.015               
H              -1.405              8.412               4.644               
N              0.116               5.353               4.365               
C              1.281               4.661               4.864               
C              1.582               5.041               6.307               
O              1.809               6.226               6.638               
C              2.505               4.947               3.978               
C              2.178               4.542               2.546               
C              3.71                4.154               4.493               
C              3.162               5.029               1.526               
H              0.182               6.141               3.666               
H              1.053               3.679               4.87                
H              2.673               5.921               3.994               
H              2.129               3.541               2.505               
H              1.269               4.904               2.32                
H              4.499               4.34                3.912               
H              3.91                4.431               5.43                
H              3.497               3.18                4.469               
H              4.071               4.662               1.73                
H              2.882               4.725               0.614               
H              3.2                 6.03                1.543               
N              1.593               4.04                7.14                
C              1.836               4.186               8.547               
C              3.305               3.966               8.867               
O              3.892               4.7                 9.662               
C              0.994               3.171               9.306               
C              -0.499              3.345               9.115               
C              -1.028              4.606               9.747               
O              -1.211              4.63                10.98               
O              -1.272              5.601               9.041               
H              1.406               3.101               6.69                
H              1.565               5.109               8.854               
H              1.234               2.274               8.978               
H              1.187               3.276               10.266              
H              -0.682              3.393               8.149               
H              -0.956              2.582               9.539               
N              3.897               2.977               8.223               
C              5.266               2.585               8.498               
C              5.826               1.853               7.284               
O              5.069               1.227               6.54                
C              5.27                1.675               9.732               
C              6.63                1.212               10.192              
C              6.537               0.327               11.398              
O              6.265               0.829               12.508              
O              6.731               -0.89               11.264              
H              3.3                 2.506               7.506               
H              5.824               3.394               8.686               
H              4.854               2.183               10.474              
H              4.734               0.872               9.509               
H              7.041               0.693               9.467               
H              7.16                2.001               10.437              
N              7.119               1.953               7.072               
C              7.773               1.329               5.939               
C              8.89                0.412               6.419               
O              9.682               0.777               7.28                
C              8.371               2.411               5.009               
C              7.272               3.355               4.55                
C              9.056               1.778               3.793               
C              7.778               4.695               4.184               
H              7.636               2.519               7.787               
H              7.089               0.74                5.502               
H              9.031               2.93                5.536               
H              6.813               2.94                3.764               
H              6.608               3.44                5.295               
H              9.452               2.497               3.228               
H              9.774               1.161               4.105               
H              8.382               1.269               3.265               
H              8.442               4.624               3.433               
H              7.02                5.285               3.887               
H              8.229               5.124               4.972               
N              8.925               -0.762              5.868               
C              9.941               -1.747              6.15                
C              10.844              -1.84               4.939               
O              10.521              -2.509              3.961               
C              9.303               -3.116              6.422               
C              10.322              -4.172              6.772               
O              10.908              -4.748              5.861               
O              10.532              -4.453              7.977               
H              8.138               -0.946              5.184               
H              10.496              -1.402              6.905               
H              8.671               -3.01               7.182               
H              8.817               -3.393              5.601               
N              11.913              -1.092              4.968               
H              12.019              -0.509              5.838               
H              -10.1066            -7.81669            -2.19799            
H              12.5944             -1.06633            4.21722             
