305
0.xyz
N              16.116              -8.391              -1.076              
C              15.874              -7.498              -2.194              
C              14.79               -8.077              -3.084              
O              14.905              -9.205              -3.577              
C              17.151              -7.272              -2.989              
H              15.246              -8.733              -0.711              
H              15.562              -6.611              -1.842              
H              17.896              -7.035              -2.365              
H              17.387              -8.106              -3.487              
H              17.013              -6.525              -3.639              
H              16.672              -9.173              -1.371              
H              16.603              -7.907              -0.345              
N              13.731              -7.331              -3.267              
C              12.628              -7.757              -4.091              
C              12.144              -6.584              -4.952              
O              12.442              -6.509              -6.143              
C              11.499              -8.304              -3.207              
O              11.999              -9.289              -2.318              
H              13.752              -6.409              -2.77               
H              12.948              -8.474              -4.714              
H              11.115              -7.555              -2.681              
H              10.808              -8.713              -3.79               
H              12.962              -9.462              -2.52               
N              11.453              -5.66               -4.347              
C              10.978              -4.508              -5.039              
C              11.902              -3.338              -4.78               
O              12.123              -2.954              -3.628              
C              9.531               -4.172              -4.616              
O              8.666               -5.279              -4.953              
C              9.028               -2.899              -5.293              
H              11.282              -5.836              -3.328              
H              10.976              -4.692              -6.029              
H              9.503               -4.048              -3.607              
H              9.796               -2.276              -5.454              
H              8.6                 -3.129              -6.169              
H              8.354               -2.448              -4.705              
H              7.747               -4.942              -5.175              
N              12.467              -2.814              -5.835              
C              13.355              -1.688              -5.746              
C              12.474              -0.445              -5.662              
O              11.708              -0.173              -6.593              
C              14.222              -1.633              -7.001              
C              15.425              -0.698              -6.939              
C              16.47               -1.157              -5.933              
H              12.22               -3.28               -6.741              
H              13.867              -1.749              -4.898              
H              14.564              -2.562              -7.199              
H              13.646              -1.343              -7.78               
H              15.849              -0.661              -7.842              
H              15.11               0.212               -6.677              
O              17.352              -1.951              -6.262              
N              16.44               -0.623              -4.754              
H              17.1                -0.89               -4.02               
H              15.733              0.094               -4.541              
N              12.496              0.271               -4.531              
C              11.654              1.449               -4.33               
C              11.904              2.553               -5.344              
O              13.051              2.913               -5.642              
C              12.046              1.936               -2.938              
C              12.574              0.73                -2.273              
C              13.296              -0.027              -3.341              
H              10.67               1.185               -4.324              
H              12.744              2.655               -3.001              
H              11.246              2.301               -2.455              
H              13.201              0.978               -1.523              
H              11.825              0.177               -1.886              
H              14.233              0.299               -3.455              
H              13.303              -1.009              -3.157              
N              10.834              3.072               -5.858              
C              10.872              4.198               -6.766              
C              10.233              5.398               -6.051              
O              10.202              6.517               -6.555              
C              10.09               3.884               -8.094              
O              10.324              4.911               -9.077              
C              8.584               3.785               -7.827              
H              9.934               2.613               -5.566              
H              11.819              4.428               -6.965              
H              10.437              2.999               -8.464              
H              8.429               3.332               -6.948              
H              8.188               4.704               -7.802              
H              8.149               3.255               -8.556              
H              11.242              4.81                -9.47               
N              9.747               5.143               -4.859              
C              9.052               6.128               -4.096              
C              9.471               5.946               -2.64               
O              9.713               4.809               -2.201              
C              7.531               5.901               -4.277              
C              6.633               7.022               -3.818              
H              9.915               4.162               -4.525              
H              9.337               7.037               -4.385              
H              7.346               5.731               -5.259              
H              7.27                5.062               -3.772              
N              5.581               7.507               -4.557              
C              6.605               7.699               -2.658              
C              4.963               8.438               -3.841              
N              5.545               8.599               -2.668              
H              5.325               7.213               -5.47               
H              7.249               7.584               -1.887              
H              4.153               8.956               -4.157              
N              9.599               7.028               -1.921              
C              9.967               6.985               -0.532              
C              8.707               7.027               0.334               
O              7.953               7.999               0.303               
C              10.902              8.151               -0.217              
O              12.054              8.101               -1.064              
H              9.413               7.922               -2.437              
H              10.431              6.115               -0.347              
H              10.425              9.003               -0.379              
H              11.198              8.084               0.726               
H              11.762              7.932               -2.002              
N              8.455               5.956               1.042               
C              7.284               5.846               1.89                
C              7.674               5.782               3.357               
O              8.78                5.333               3.682               
C              6.466               4.608               1.52                
C              5.79                4.693               0.183               
C              6.138               4.047               -0.972              
C              4.641               5.482               -0.129              
N              5.259               4.383               -1.975              
C              4.337               5.261               -1.48               
C              3.838               6.352               0.609               
C              3.265               5.876               -2.107              
C              2.779               6.961               -0.015              
C              2.502               6.72                -1.361              
H              9.162               5.189               0.948               
H              6.728               6.677               1.76                
H              7.07                3.818               1.495               
H              5.754               4.476               2.202               
H              6.91                3.427               -1.073              
H              5.291               4.04                -2.913              
H              4.029               6.528               1.574               
H              3.072               5.695               -3.079              
H              2.199               7.587               0.503               
H              1.716               7.187               -1.78               
N              6.788               6.256               4.236               
C              7.006               6.163               5.668               
C              5.759               5.553               6.335               
O              4.672               5.54                5.742               
C              7.31                7.527               6.316               
C              6.095               8.414               6.479               
C              6.395               9.613               7.352               
C              5.113               10.302              7.78                
N              4.42                10.999              6.663               
H              5.945               6.689               3.807               
H              7.784               5.561               5.849               
H              7.704               7.356               7.216               
H              7.975               7.997               5.739               
H              5.8                 8.735               5.577               
H              5.355               7.884               6.897               
H              6.878               9.31                8.165               
H              6.946               10.26               6.838               
H              4.489               9.613               8.175               
H              5.329               10.974              8.503               
H              3.6                 11.452              7.012               
H              5.034               11.68               6.265               
H              4.162               10.332              5.965               
N              5.933               5.027               7.527               
C              4.846               4.435               8.304               
C              3.809               5.503               8.693               
O              4.168               6.587               9.157               
C              5.379               3.699               9.573               
C              4.241               3.134               10.417              
C              6.342               2.583               9.179               
H              6.921               5.065               7.881               
H              4.381               3.755               7.73                
H              5.851               4.377               10.131              
H              4.613               2.501               11.095              
H              3.769               3.882               10.882              
H              3.597               2.65                9.825               
H              6.199               2.351               8.218               
H              7.281               2.897               9.315               
H              6.167               1.782               9.75                
N              2.543               5.198               8.504               
C              1.494               6.126               8.858               
C              1.226               7.127               7.775               
O              0.783               8.246               8.045               
H              2.37                4.261               8.091               
H              0.642               5.608               9.061               
H              1.751               6.612               9.714               
N              1.506               6.751               6.558               
C              1.261               7.629               5.444               
C              0.077               7.114               4.703               
O              -0.23               5.908               4.756               
C              2.426               7.648               4.479               
C              2.769               9.053               3.983               
O              2.068               9.594               3.103               
O              3.774               9.643               4.457               
H              1.907               5.798               6.464               
H              1.02                8.526               5.818               
H              3.227               7.278               4.94                
H              2.195               7.088               3.69                
N              -0.563              7.979               4.021               
C              -1.687              7.656               3.239               
C              -1.263              7.448               1.84                
O              -0.546              8.257               1.268               
C              -2.714              8.756               3.338               
C              -3.428              8.744               4.653               
C              -4.484              7.655               4.669               
C              -5.074              7.458               6.041               
N              -5.618              8.714               6.62                
H              -0.177              8.968               4.091               
H              -2.11               6.806               3.587               
H              -2.251              9.63                3.234               
H              -3.381              8.631               2.61                
H              -2.776              8.567               5.388               
H              -3.874              9.624               4.803               
H              -5.215              7.909               4.037               
H              -4.066              6.798               4.372               
H              -5.816              6.775               5.987               
H              -4.362              7.095               6.659               
H              -4.866              9.269               6.975               
H              -6.104              9.224               5.91                
H              -6.249              8.492               7.363               
N              -1.699              6.394               1.298               
C              -1.349              6.036               -0.03               
C              -2.532              5.389               -0.676              
O              -3.584              5.233               -0.045              
C              -0.169              5.065               0.01                
S              -0.45               3.613               1.054               
H              -2.337              5.803               1.897               
H              -1.124              6.868               -0.545              
H              0.008               4.752               -0.919              
H              0.624               5.554               0.363               
H              -1.284              3.746               1.589               
N              -2.411              5.059               -1.911              
C              -3.413              4.31                -2.553              
C              -2.779              3.05                -2.997              
O              -1.714              3.069               -3.609              
C              -4.061              5.051               -3.721              
C              -4.657              6.395               -3.336              
S              -5.888              6.985               -4.504              
C              -7.184              5.763               -4.271              
H              -1.533              5.386               -2.378              
H              -4.131              4.088               -1.893              
H              -3.369              5.203               -4.437              
H              -4.794              4.477               -4.107              
H              -5.058              6.312               -2.392              
H              -3.889              7.074               -3.239              
H              -6.93               5.146               -3.526              
H              -8.041              6.226               -4.044              
H              -7.302              5.237               -5.114              
N              -3.399              1.976               -2.69               
C              -2.851              0.696               -2.963              
C              -3.753              -0.031              -3.884              
O              -4.953              0.248               -3.941              
C              -2.677              -0.085              -1.678              
H              -4.334              2.114               -2.226              
H              -1.949              0.807               -3.402              
H              -1.884              -0.691              -1.755              
H              -2.535              0.547               -0.915              
H              -3.495              -0.634              -1.502              
N              -3.193              -0.919              -4.616              
C              -3.93               -1.727              -5.515              
C              -4.441              -2.934              -4.767              
O              -3.654              -3.721              -4.247              
C              -3.053              -2.146              -6.717              
C              -3.794              -3.099              -7.633              
C              -2.618              -0.905              -7.48               
H              -2.147              -0.999              -4.496              
H              -4.726              -1.212              -5.845              
H              -2.264              -2.638              -6.354              
H              -4.781              -3.002              -7.493              
H              -3.574              -2.89               -8.587              
H              -3.523              -4.041              -7.43               
H              -2.692              -0.106              -6.883              
H              -1.669              -1.015              -7.777              
H              -3.208              -0.784              -8.278              
N              -5.75               -3.046              -4.679              
C              -6.389              -4.135              -3.982              
C              -6.094              -5.399              -4.734              
O              -6.41               -5.495              -5.902              
C              -7.908              -3.909              -3.926              
C              -8.646              -4.829              -2.993              
C              -8.12               -5.494              -1.937              
C              -10.047             -5.147              -3.007              
N              -9.09               -6.212              -1.291              
C              -10.288             -6.009              -1.92               
C              -11.114             -4.789              -3.825              
C              -11.558             -6.512              -1.634              
C              -12.368             -5.292              -3.541              
C              -12.576             -6.141              -2.455              
H              -6.283              -2.279              -5.157              
H              -5.972              -4.209              -3.077              
H              -8.082              -2.977              -3.62               
H              -8.286              -4.047              -4.837              
H              -7.155              -5.468              -1.662              
H              -8.949              -6.793              -0.488              
H              -10.982             -4.178              -4.605              
H              -11.692             -7.123              -0.848              
H              -13.136             -5.041              -4.127              
H              -13.506             -6.481              -2.284              
N              -5.521              -6.357              -4.069              
C              -5.122              -7.61               -4.685              
C              -6.342              -8.369              -5.271              
O              -6.213              -9.16               -6.222              
C              -4.375              -8.469              -3.642              
O              -3.879              -9.681              -4.191              
H              -5.367              -6.158              -3.049              
H              -4.503              -7.409              -5.453              
H              -3.609              -7.936              -3.284              
H              -5.008              -8.684              -2.899              
H              -3.43               -10.211             -3.473              
N              -7.519              -8.08               -4.751              
H              -7.511              -7.325              -4.037              
H              -8.34749            -8.56641            -5.03827            
