250
3.xyz
C              -10.173             -2.137              7.574               
C              -9.343              -3.32               7.13                
O              -8.725              -3.994              7.952               
H              -9.567              -1.448              8.008               
H              -10.833             -2.44               8.282               
N              -9.326              -3.579              5.831               
C              -8.531              -4.677              5.288               
C              -7.1                -4.285              5.221               
O              -6.782              -3.117              5.062               
C              -8.966              -5.124              3.889               
C              -10.267             -5.875              3.842               
H              -9.91               -2.953              5.248               
H              -8.615              -5.442              5.937               
H              -9.045              -4.303              3.312               
H              -8.239              -5.71               3.511               
O              -11.168             -5.639              4.625               
N              -10.373             -6.784              2.916               
H              -9.619              -6.97               2.278               
H              -11.223             -7.324              2.823               
N              -6.249              -5.237              5.295               
C              -4.848              -4.99               5.285               
C              -4.164              -6.046              4.482               
O              -4.596              -7.207              4.488               
C              -4.31               -4.957              6.7                 
H              -6.66               -6.203              5.363               
H              -4.67               -4.092              4.862               
H              -4.701              -5.712              7.228               
H              -3.313              -5.047              6.685               
H              -4.556              -4.09               7.135               
N              -3.143              -5.652              3.772               
C              -2.377              -6.555              2.964               
C              -0.957              -6.035              2.852               
O              -0.704              -4.837              3.094               
C              -2.989              -6.718              1.552               
C              -2.995              -5.466              0.692               
C              -3.308              -5.792              -0.773              
O              -4.495              -5.937              -1.146              
O              -2.344              -5.951              -1.563              
H              -2.932              -4.625              3.843               
H              -2.365              -7.469              3.377               
H              -2.457              -7.406              1.082               
H              -3.926              -7.008              1.672               
H              -3.698              -4.87               1.013               
H              -2.105              -5.065              0.715               
N              -0.038              -6.907              2.526               
C              1.326               -6.512              2.299               
C              1.5                 -6.363              0.806               
O              1.392               -7.342              0.061               
C              2.344               -7.545              2.855               
C              3.776               -7.085              2.616               
C              2.109               -7.782              4.337               
H              -0.373              -7.893              2.447               
H              1.475               -5.622              2.719               
H              2.218               -8.391              2.345               
H              4.364               -7.882              2.478               
H              3.808               -6.503              1.804               
H              4.097               -6.568              3.409               
H              2.213               -6.919              4.831               
H              1.184               -8.137              4.473               
H              2.776               -8.445              4.676               
N              1.731               -5.171              0.377               
C              1.809               -4.868              -1.018              
C              3.112               -4.106              -1.292              
O              3.577               -3.338              -0.443              
C              0.541               -4.07               -1.482              
O              0.473               -3.971              -2.912              
C              0.508               -2.681              -0.882              
H              1.857               -4.444              1.128               
H              1.837               -5.719              -1.546              
H              -0.289              -4.574              -1.153              
H              0.47                -1.992              -1.611              
H              -0.3                -2.579              -0.295              
H              1.332               -2.525              -0.33               
H              1.235               -3.415              -3.259              
N              3.775               -4.385              -2.416              
C              5.025               -3.739              -2.762              
C              4.839               -2.238              -2.941              
O              3.777               -1.786              -3.372              
C              5.415               -4.391              -4.086              
C              4.138               -4.874              -4.645              
C              3.317               -5.288              -3.471              
H              5.736               -3.928              -2.07               
H              5.851               -3.719              -4.694              
H              6.057               -5.147              -3.93               
H              3.676               -4.144              -5.168              
H              4.292               -5.653              -5.269              
H              2.338               -5.164              -3.642              
H              3.488               -6.243              -3.218              
N              5.863               -1.482              -2.607              
C              5.869               -0.01               -2.735              
C              5.521               0.433               -4.158              
O              5.02                1.529               -4.364              
C              7.227               0.576               -2.335              
C              7.785               0.148               -0.974              
C              9.087               0.858               -0.692              
C              6.787               0.396               0.141               
H              6.693               -2.008              -2.235              
H              5.177               0.363               -2.106              
H              7.892               0.303               -3.027              
H              7.139               1.569               -2.321              
H              7.934               -0.841              -0.985              
H              8.939               1.849               -0.683              
H              9.445               0.572               0.2                 
H              9.758               0.633               -1.402              
H              5.95                -0.125              -0.034              
H              7.18                0.107               1.016               
H              6.566               1.372               0.185               
N              5.798               -0.442              -5.128              
C              5.504               -0.182              -6.534              
C              3.986               -0.068              -6.752              
O              3.518               0.616               -7.668              
C              6.14                -1.295              -7.431              
C              5.463               -2.682              -7.49               
C              4.364               -2.707              -8.536              
C              6.478               -3.778              -7.761              
H              6.242               -1.326              -4.792              
H              5.923               0.69                -6.797              
H              6.168               -0.936              -8.368              
H              7.078               -1.433              -7.106              
H              5.077               -2.885              -6.59               
H              4.751               -2.502              -9.436              
H              3.94                -3.614              -8.557              
H              3.67                -2.022              -8.311              
H              7.163               -3.79               -7.031              
H              6.015               -4.665              -7.794              
H              6.931               -3.608              -8.638              
N              3.226               -0.717              -5.874              
C              1.773               -0.732              -5.966              
C              1.179               0.412               -5.215              
O              -0.002              0.725               -5.368              
C              1.192               -2.05               -5.454              
C              1.259               -3.165              -6.463              
H              3.757               -1.208              -5.123              
H              1.541               -0.614              -6.942              
H              1.705               -2.321              -4.639              
H              0.234               -1.894              -5.208              
O              1.249               -2.937              -7.67               
N              1.273               -4.371              -5.991              
H              1.234               -4.546              -5                  
H              1.323               -5.168              -6.612              
N              1.984               1.027               -4.397              
C              1.544               2.161               -3.639              
C              1.688               3.414               -4.458              
O              2.761               3.72                -4.99               
C              2.348               2.283               -2.351              
C              2.252               1.096               -1.409              
C              3.047               1.334               -0.153              
C              0.815               0.799               -1.071              
H              2.949               0.635               -4.343              
H              0.571               2.042               -3.404              
H              3.306               2.394               -2.598              
H              2.021               3.083               -1.861              
H              2.6                 0.278               -1.878              
H              2.699               2.145               0.324               
H              2.971               0.54                0.456               
H              4.013               1.479               -0.381              
H              0.303               0.586               -1.907              
H              0.765               0.014               -0.449              
H              0.396               1.595               -0.626              
N              0.615               4.118               -4.568              
C              0.559               5.354               -5.288              
C              0.255               6.46                -4.302              
O              -0.372              6.198               -3.272              
C              -0.534              5.278               -6.37               
C              -0.405              4.064               -7.291              
C              0.945               4.029               -8.004              
C              1.115               2.76                -8.828              
N              2.439               2.706               -9.488              
H              -0.231              3.708               -4.08               
H              1.447               5.537               -5.712              
H              -1.417              5.233               -5.915              
H              -0.476              6.101               -6.927              
H              -0.503              3.231               -6.745              
H              -1.132              4.098               -7.977              
H              1.005               4.814               -8.613              
H              1.669               4.064               -7.322              
H              1.012               1.966               -8.222              
H              0.393               2.729               -9.526              
H              2.974               1.951               -9.106              
H              2.318               2.562               -10.471             
H              2.925               3.568               -9.336              
N              0.697               7.689               -4.557              
C              0.38                8.81                -3.684              
C              -1.103              9.172               -3.777              
O              -1.754              8.907               -4.802              
C              1.255               9.951               -4.213              
C              1.554               9.586               -5.627              
C              1.546               8.085               -5.694              
H              0.635               8.61                -2.731              
H              0.762               10.826              -4.163              
H              2.099               10.028              -3.673              
H              0.858               9.976               -6.248              
H              2.454               9.952               -5.903              
H              1.153               7.758               -6.555              
H              2.469               7.707               -5.591              
N              -1.638              9.748               -2.724              
C              -3.024              10.138              -2.7                
C              -3.178              11.458              -3.429              
O              -2.951              12.539              -2.872              
C              -3.599              10.254              -1.257              
C              -5.071              10.66               -1.281              
C              -3.443              8.947               -0.513              
H              -0.984              9.894               -1.925              
H              -3.559              9.449               -3.193              
H              -3.101              10.983              -0.797              
H              -5.142              11.653              -1.201              
H              -5.483              10.363              -2.142              
H              -5.546              10.228              -0.516              
H              -2.896              8.312               -1.062              
H              -2.984              9.112               0.361               
H              -4.346              8.548               -0.344              
N              -3.483              11.356              -4.676              
C              -3.667              12.49               -5.514              
C              -5.154              12.728              -5.622              
O              -5.885              11.907              -6.185              
C              -3.038              12.216              -6.883              
C              -1.569              11.808              -6.786              
C              -0.921              11.532              -8.119              
O              -1.147              10.454              -8.698              
O              -0.155              12.388              -8.613              
H              -3.585              10.363              -5.024              
H              -3.229              13.295              -5.121              
H              -3.524              11.474              -7.294              
H              -3.082              13.041              -7.405              
H              -1.077              12.549              -6.357              
H              -1.518              10.981              -6.247              
N              -5.614              13.819              -5.06               
C              -7.029              14.1                -4.987              
C              -7.518              14.767              -6.258              
O              -7.934              15.934              -6.273              
C              -7.376              14.919              -3.741              
C              -6.896              14.274              -2.451              
C              -7.41               14.961              -1.214              
O              -6.915              16.036              -0.855              
O              -8.312              14.414              -0.555              
H              -4.883              14.458              -4.675              
H              -7.542              13.243              -4.84               
H              -6.933              15.789              -3.823              
H              -8.352              14.993              -3.693              
H              -7.22               13.343              -2.436              
H              -5.911              14.318              -2.434              
N              -7.397              14.042              -7.314              
C              -7.841              14.474              -8.585              
C              -6.931              13.967              -9.651              
O              -5.989              14.676              -10.023             
O              -7.103              12.816              -10.082             
H              -6.94               13.102              -7.151              
H              -8.781              14.14               -8.758              
H              -7.869              15.486              -8.619              
H              -10.6913            -1.6959             6.7755              
