256
1.xyz
C              8.402               -2.938              1.84                
O              9.347               -2.449              2.461               
N              7.92                -2.405              0.711               
C              8.473               -1.18               0.115               
C              8.276               0.009               1.083               
O              9.124               0.893               1.151               
C              7.814               -0.893              -1.224              
H              7.124               -2.93               0.293               
H              9.453               -1.305              -0.033              
H              7.334               -1.71               -1.543              
H              7.16                -0.143              -1.122              
H              8.512               -0.636              -1.893              
N              7.161               0.021               1.822               
C              6.89                1.094               2.782               
C              7.981               1.044               3.892               
O              8.516               2.082               4.286               
C              5.486               0.971               3.42                
C              5.275               2.052               4.469               
C              4.404               1.052               2.355               
H              6.522               -0.777              1.659               
H              6.981               1.967               2.318               
H              5.446               0.095               3.89                
H              4.305               2.102               4.708               
H              5.808               1.833               5.287               
H              5.573               2.934               4.105               
H              4.564               1.855               1.781               
H              4.431               0.226               1.792               
H              3.51                1.128               2.797               
N              8.3                 -0.166              4.375               
C              9.318               -0.365              5.432               
C              10.67               0.11                4.921               
O              11.434              0.757               5.646               
C              9.38                -1.838              5.843               
C              10.376              -2.124              6.954               
C              10.298              -3.572              7.408               
C              11.302              -3.868              8.507               
N              11.18               -5.261              9.008               
H              7.773               -0.954              3.946               
H              9.058               0.179               6.228               
H              8.473               -2.112              6.155               
H              9.639               -2.373              5.042               
H              11.3                -1.939              6.62                
H              10.178              -1.529              7.733               
H              9.383               -3.751              7.757               
H              10.492              -4.164              6.632               
H              12.229              -3.726              8.148               
H              11.15               -3.229              9.268               
H              11.097              -5.888              8.233               
H              11.993              -5.496              9.541               
H              10.368              -5.337              9.587               
N              10.949              -0.222              3.662               
C              12.188              0.167               2.999               
C              12.263              1.718               2.992               
O              13.262              2.291               3.425               
C              12.232              -0.397              1.574               
C              13.453              -0.005              0.782               
C              14.717              -0.457              1.14                
C              13.331              0.81                -0.331              
C              15.829              -0.1                0.399               
C              14.44               1.169               -1.074              
C              15.69               0.712               -0.709              
H              10.203              -0.785              3.192               
H              12.942              -0.143              3.567               
H              12.216              -1.386              1.64                
H              11.434              -0.061              1.091               
H              14.825              -1.045              1.937               
H              12.424              1.144               -0.602              
H              16.74               -0.436              0.676               
H              14.328              1.769               -1.885              
H              16.498              0.966               -1.245              
N              11.203              2.375               2.507               
C              11.14               3.846               2.433               
C              11.176              4.557               3.781               
O              11.541              5.732               3.854               
C              9.886               4.283               1.67                
C              10.077              4.507               0.167               
C              10.609              3.255               -0.507              
C              8.767               4.942               -0.473              
H              10.425              1.76                2.186               
H              11.936              4.166               1.88                
H              9.2                 3.574               1.779               
H              9.573               5.139               2.061               
H              10.724              5.26                0.032               
H              9.963               2.502               -0.376              
H              10.726              3.424               -1.487              
H              11.492              3.007               -0.106              
H              8.456               5.796               -0.053              
H              8.905               5.085               -1.454              
H              8.075               4.232               -0.335              
N              10.8                3.85                4.841               
C              10.804              4.431               6.185               
C              12.16               4.237               6.892               
O              12.401              4.823               7.956               
C              9.682               3.835               7.035               
C              8.346               4.528               6.838               
C              8.4                 5.993               7.229               
H              10.511              2.876               4.641               
H              10.649              5.423               6.097               
H              9.573               2.872               6.793               
H              9.934               3.911               8                   
H              8.089               4.465               5.876               
H              7.661               4.073               7.402               
O              8.682               6.862               6.404               
N              8.146               6.276               8.495               
H              8.177               7.236               8.836               
H              7.915               5.516               9.135               
N              13.034              3.421               6.301               
C              14.366              3.137               6.872               
C              15.243              4.376               6.894               
O              15.328              5.094               5.902               
C              15.01               2.02                6.057               
C              16.377              1.65                6.556               
H              12.703              3.002               5.408               
H              14.216              2.857               7.828               
H              14.419              1.216               6.106               
H              15.083              2.327               5.109               
O              17.364              2.233               6.134               
N              16.441              0.675               7.448               
H              15.601              0.219               7.753               
H              17.324              0.388               7.821               
N              15.892              4.619               8.029               
C              16.762              5.79                8.204               
C              17.856              5.966               7.172               
O              18.055              7.073               6.66                
C              17.382              5.732               9.599               
O              16.373              5.601               10.589              
H              15.734              3.915               8.78                
H              16.161              6.622               8.173               
H              17.988              4.947               9.65                
H              17.887              6.572               9.762               
H              15.61               5.074               10.218              
N              18.565              4.883               6.869               
C              19.644              4.926               5.885               
C              19.071              5.182               4.492               
O              19.623              5.963               3.72                
C              20.619              3.726               5.921               
C              20.105              2.426               6.52                
C              19.935              2.512               8.028               
N              21.137              2.992               8.703               
C              21.174              3.33                9.991               
N              20.091              3.2                 10.751              
N              22.296              3.794               10.524              
H              18.291              4.023               7.381               
H              20.267              5.677               6.118               
H              20.907              3.541               4.973               
H              21.432              4.011               6.445               
H              19.216              2.204               6.119               
H              20.753              1.69                6.322               
H              19.178              3.136               8.219               
H              19.71               1.598               8.366               
H              21.981              3.072               8.169               
H              19.245              2.831               10.377              
H              20.127              3.477               11.717              
H              23.12               3.87                9.956               
H              22.324              4.066               11.483              
N              17.96               4.517               4.183               
C              17.311              4.666               2.886               
C              16.862              6.105               2.635               
O              17.04               6.627               1.534               
C              16.098              3.725               2.765               
C              15.311              3.992               1.488               
C              16.566              2.286               2.809               
H              17.603              3.894               4.934               
H              17.98               4.422               2.169               
H              15.486              3.919               3.53                
H              15.937              4.287               0.767               
H              14.845              3.155               1.203               
H              14.635              4.709               1.657               
H              17.114              2.138               3.634               
H              15.772              1.677               2.823               
H              17.122              2.091               2                   
N              16.289              6.739               3.654               
C              15.81               8.122               3.545               
C              16.913              9.133               3.251               
O              16.63               10.266              2.847               
C              15.092              8.491               4.85                
C              14.401              9.845               4.827               
C              13.323              9.906               3.761               
N              12.283              8.897               3.961               
C              10.981              9.174               3.987               
N              10.565              10.431              3.904               
N              10.1                8.195               4.119               
H              16.209              6.179               4.527               
H              15.124              8.165               2.795               
H              14.403              7.794               5.032               
H              15.767              8.5                 5.583               
H              13.975              10.015              5.713               
H              15.072              10.557              4.632               
H              12.908              10.814              3.789               
H              13.756              9.759               2.873               
H              12.567              7.944               4.086               
H              11.211              11.182              3.801               
H              9.578               10.631              3.944               
H              10.416              7.244               4.179               
H              9.123               8.397               4.158               
N              18.163              8.722               3.45                
C              19.303              9.599               3.202               
C              19.651              9.68                1.718               
O              20.325              10.618              1.279               
C              20.513              9.097               3.995               
C              21.72               10.018              3.931               
C              22.939              9.445               4.629               
H              18.253              7.746               3.789               
H              19.053              10.529              3.51                
H              20.247              8.997               4.956               
H              20.784              8.202               3.634               
H              21.95               10.179              2.97                
H              21.483              10.888              4.366               
O              23.762              10.185              5.166               
N              23.073              8.128               4.616               
H              23.871              7.675               5.051               
H              22.354              7.565               4.158               
N              19.193              8.697               0.95                
C              19.471              8.664               -0.477              
C              18.526              9.548               -1.272              
O              17.39               9.779               -0.843              
C              19.419              7.233               -0.98               
O              20.378              6.435               -0.308              
H              18.636              7.977               1.445               
H              20.413              9.008               -0.621              
H              18.513              6.86                -0.809              
H              19.619              7.223               -1.955              
H              20.123              6.347               0.654               
N              18.974              10.057              -2.441              
C              18.121              10.904              -3.262              
C              16.835              10.162              -3.644              
O              16.838              8.937               -3.804              
C              18.974              11.187              -4.502              
C              20.379              10.96               -4.062              
C              20.316              9.883               -3.016              
H              17.903              11.765              -2.792              
H              18.725              10.564              -5.251              
H              18.841              12.133              -4.814              
H              20.952              10.671              -4.84               
H              20.771              11.807              -3.681              
H              20.41               8.974               -3.42               
H              21.019              10.011              -2.315              
N              15.75               10.913              -3.786              
C              14.464              10.344              -4.151              
C              13.474              11.466              -4.471              
C              13.129              12.395              -3.309              
C              12.336              13.59               -3.809              
C              12.337              11.649              -2.251              
H              15.9                11.929              -3.615              
H              14.112              9.805               -3.37               
H              13.87               12.025              -5.192              
H              12.628              11.047              -4.78               
H              13.975              12.712              -2.883              
H              11.488              13.275              -4.237              
H              12.115              14.192              -3.04               
H              12.879              14.096              -4.481              
H              12.879              10.882              -1.903              
H              12.117              12.269              -1.496              
H              11.488              11.3                -2.65               
H              14.5308             9.6704              -5.02423            
H              7.91341             -3.83142            2.19179             
