167
2.xyz
C              14.557              9.406               -5.367              
O              14.076              8.27                -5.306              
N              15.168              9.881               -6.457              
C              15.315              9.085               -7.683              
C              15.966              7.735               -7.429              
O              15.614              6.732               -8.062              
C              16.112              9.861               -8.718              
H              15.527              10.852              -6.364              
H              14.393              8.933               -8.076              
H              15.578              9.943               -9.56               
H              16.319              10.774              -8.367              
H              16.967              9.38                -8.913              
N              16.915              7.731               -6.493              
C              17.672              6.528               -6.092              
C              16.74               5.527               -5.403              
O              16.798              4.331               -5.684              
C              18.849              6.886               -5.166              
O              19.664              7.892               -5.79               
C              19.698              5.659               -4.87               
H              17.086              8.67                -6.053              
H              18.042              6.1                 -6.918              
H              18.48               7.272               -4.297              
H              20.597              5.942               -4.528              
H              19.247              5.092               -4.177              
H              19.82               5.12                -5.707              
H              19.086              8.559               -6.27               
N              15.885              6.03                -4.506              
C              14.92               5.195               -3.776              
C              13.904              4.581               -4.774              
O              13.604              3.387               -4.702              
C              14.149              6.026               -2.744              
C              15.01               6.962               -1.916              
C              14.157              7.805               -0.982              
N              14.878              8.977               -0.494              
C              14.311              10.001              0.138               
N              13.015              9.983               0.429               
N              15.047              11.049              0.474               
H              15.961              7.06                -4.369              
H              15.407              4.448               -3.328              
H              13.473              6.575               -3.232              
H              13.688              5.397               -2.122              
H              15.644              6.431               -1.363              
H              15.509              7.577               -2.519              
H              13.348              8.101               -1.483              
H              13.891              7.236               -0.208              
H              15.874              9.013               -0.646              
H              12.451              9.194               0.197               
H              12.598              10.773              0.89                
H              16.028              11.06               0.27                
H              14.627              11.833              0.933               
N              13.385              5.393               -5.694              
C              12.423              4.896               -6.678              
C              13.081              3.841               -7.584              
O              12.506              2.779               -7.824              
C              11.843              6.036               -7.513              
C              11.249              7.154               -6.674              
C              10.084              7.83                -7.378              
N              10.433              8.309               -8.715              
C              9.574               8.939               -9.516              
N              8.332               9.181               -9.104              
N              9.95                9.318               -10.733             
H              13.711              6.371               -5.653              
H              11.656              4.465               -6.196              
H              12.572              6.419               -8.067              
H              11.124              5.667               -8.089              
H              10.916              6.782               -5.81               
H              11.947              7.845               -6.497              
H              9.339               7.168               -7.451              
H              9.791               8.604               -6.818              
H              11.364              8.156               -9.045              
H              8.033               8.917               -8.193              
H              7.686               9.64                -9.724              
H              10.891              9.142               -11.034             
H              9.306               9.773               -11.341             
N              14.284              4.148               -8.08               
C              15.021              3.233               -8.959              
C              15.344              1.922               -8.253              
O              15.297              0.855               -8.873              
C              16.302              3.891               -9.446              
H              14.647              5.078               -7.793              
H              14.449              3.034               -9.766              
H              16.836              4.206               -8.661              
H              16.84               3.231               -9.97               
H              16.077              4.672               -10.028             
N              15.673              2                   -6.955              
C              15.993              0.787               -6.195              
C              14.749              -0.112              -6.201              
O              14.844              -1.311              -6.465              
C              16.514              1.029               -4.788              
C              17.656              0.093               -4.495              
C              18.943              0.424               -4.893              
C              17.449              -1.13               -3.867              
C              19.997              -0.437              -4.672              
C              18.504              -1.991              -3.64               
C              19.778              -1.645              -4.043              
H              15.68               2.947               -6.559              
H              16.697              0.303               -6.701              
H              16.851              1.941               -4.738              
H              15.797              0.837               -4.158              
H              19.11               1.299               -5.345              
H              16.526              -1.384              -3.578              
H              20.925              -0.178              -4.974              
H              18.336              -2.88               -3.177              
H              20.546              -2.269              -3.88               
N              13.585              0.473               -5.914              
C              12.32               -0.273              -5.894              
C              11.991              -0.85               -7.289              
O              11.458              -1.964              -7.395              
C              11.17               0.621               -5.431              
C              11.218              1.048               -3.965              
C              10.051              1.967               -3.653              
C              11.198              -0.17               -3.055              
H              13.648              1.49                -5.708              
H              12.41               -1.041              -5.254              
H              11.185              1.448               -5.982              
H              10.321              0.124               -5.569              
H              12.076              1.529               -3.795              
H              9.19                1.488               -3.827              
H              10.088              2.243               -2.692              
H              10.1                2.781               -4.233              
H              11.992              -0.748              -3.251              
H              11.23               0.125               -2.099              
H              10.359              -0.693              -3.213              
N              12.304              -0.099              -8.347              
C              12.044              -0.556              -9.707              
C              12.908              -1.803              -10.005             
O              12.415              -2.767              -10.591             
C              12.35               0.545               -10.734             
C              11.348              1.692               -10.736             
C              9.958               1.226               -11.147             
C              9.899               0.828               -12.614             
N              9.917               2.009               -13.516             
H              12.737              0.814               -8.12               
H              11.083              -0.815              -9.792              
H              13.253              0.917               -10.529             
H              12.354              0.129               -11.641             
H              11.298              2.083               -9.816              
H              11.657              2.394               -11.378             
H              9.707               0.436               -10.593             
H              9.311               1.968               -10.994             
H              10.688              0.241               -12.823             
H              9.057               0.303               -12.774             
H              9.754               2.838               -12.982             
H              10.808              2.071               -13.965             
H              9.201               1.911               -14.207             
N              14.183              -1.788              -9.603              
C              15.078              -2.938              -9.846              
C              16.498              -2.525              -9.431              
C              17.53               -3.641              -9.454              
C              18.82               -3.202              -8.779              
C              19.879              -4.293              -8.807              
N              21.111              -3.887              -8.075              
H              14.483              -0.927              -9.121              
H              15.051              -3.161              -10.827             
H              16.803              -1.801              -10.053             
H              16.452              -2.156              -8.499              
H              17.165              -4.433              -8.969              
H              17.727              -3.885              -10.401             
H              19.176              -2.402              -9.255              
H              18.625              -2.974              -7.828              
H              19.503              -5.122              -8.384              
H              20.115              -4.493              -9.762              
H              21.281              -4.532              -7.33               
H              21.887              -3.89               -8.705              
H              20.987              -2.968              -7.701              
H              14.7592             -3.81698            -9.27294            
H              14.4921             10.0607             -4.51825            
