217
5.xyz
C              38.702              -5.72               -0.911              
C              37.825              -6.909              -1.255              
O              37.251              -6.984              -2.351              
C              37.812              -4.623              -0.319              
C              38.584              -3.477              0.26                
C              38.941              -2.387              -0.514              
C              38.984              -3.504              1.585               
C              39.677              -1.343              0.021               
C              39.715              -2.472              2.128               
C              40.05               -1.395              1.347               
O              40.78               -0.37               1.896               
H              39.386              -6.019              -0.225              
H              37.224              -4.278              -1.046              
H              37.259              -5.031              0.403               
H              38.665              -2.349              -1.477              
H              38.735              -4.288              2.157               
H              39.933              -0.562              -0.548              
H              40.001              -2.508              3.089               
H              40.922              -0.551              2.868               
N              37.725              -7.834              -0.308              
C              36.693              -8.863              -0.35               
C              35.418              -8.316              0.297               
O              35.471              -7.736              1.388               
C              37.167              -10.107             0.387               
C              36.1                -11.156             0.63                
C              36.729              -12.397             1.254               
C              37.65               -12.042             2.425               
N              36.909              -11.651             3.666               
H              38.431              -7.762              0.45                
H              36.495              -9.091              -1.302              
H              37.904              -10.528             -0.149              
H              37.537              -9.823              1.277               
H              35.418              -10.794             1.255               
H              35.682              -11.409             -0.234              
H              36.006              -12.99              1.593               
H              37.268              -12.869             0.564               
H              38.233              -12.838             2.629               
H              38.247              -11.279             2.146               
H              36.813              -12.451             4.255               
H              37.422              -10.939             4.142               
H              36.007              -11.307             3.413               
N              34.286              -8.493              -0.383              
C              32.995              -7.985              0.087               
C              32.168              -9.117              0.705               
O              31.879              -10.108             0.036               
C              32.198              -7.359              -1.08               
O              32.855              -6.168              -1.537              
C              30.769              -7.016              -0.652              
H              34.397              -9.022              -1.275              
H              33.162              -7.295              0.796               
H              32.172              -8.025              -1.853              
H              30.121              -7.386              -1.319              
H              30.583              -7.415              0.247               
H              30.663              -6.022              -0.602              
H              33.041              -5.554              -0.763              
N              31.79               -8.983              1.977               
C              31.021              -10.034             2.631               
C              29.793              -9.483              3.345               
O              29.911              -8.8                4.367               
C              31.851              -10.825             3.652               
O              33.091              -11.241             3.064               
C              31.065              -12.059             4.102               
H              32.079              -8.108              2.433               
H              30.71               -10.689             1.926               
H              32.065              -10.218             4.447               
H              31.063              -12.109             5.102               
H              30.122              -11.996             3.771               
H              31.493              -12.884             3.729               
H              33.205              -10.823             2.157               
N              28.62               -9.801              2.812               
C              27.359              -9.398              3.419               
C              27.015              -10.327             4.584               
O              27.327              -11.517             4.552               
C              26.241              -9.446              2.374               
C              24.842              -9.2                2.916               
C              24.68               -7.804              3.464               
O              23.821              -7.565              4.314               
N              25.51               -6.87               2.99                
H              28.679              -10.357             1.932               
H              27.472              -8.473              3.791               
H              26.429              -8.751              1.671               
H              26.25               -10.353             1.936               
H              24.185              -9.334              2.176               
H              24.663              -9.857              3.647               
H              25.449              -5.909              3.303               
H              26.21               -7.147              2.303               
N              26.38               -9.781              5.614               
C              25.99               -10.577             6.774               
C              24.826              -9.933              7.489               
O              24.505              -8.77               7.254               
C              27.169              -10.737             7.733               
H              26.19               -8.766              5.526               
H              25.714              -11.492             6.457               
H              26.826              -10.931             8.65                
H              27.746              -11.492             7.425               
H              27.702              -9.892              7.747               
N              24.199              -10.692             8.377               
C              23.217              -10.122             9.289               
C              23.66               -10.462             10.69               
O              23.657              -11.625             11.09               
C              21.819              -10.673             9.015               
C              21.278              -10.214             7.694               
H              24.46               -11.693             8.365               
H              23.265              -9.133              9.192               
H              21.87               -11.668             9.017               
H              21.213              -10.36              9.742               
O              21.511              -10.849             6.668               
N              20.565              -9.087              7.704               
H              20.423              -8.596              8.563               
H              20.175              -8.735              6.855               
N              24.074              -9.443              11.427              
C              24.728              -9.662              12.707              
C              24.379              -8.54               13.652              
O              23.88               -7.497              13.237              
C              26.251              -9.719              12.519              
C              26.764              -11.033             11.95               
C              28.276              -11.026             11.801              
C              28.741              -12.37              11.262              
N              30.222              -12.443             11.151              
H              23.897              -8.506              11.024              
H              24.403              -10.53              13.094              
H              26.514              -8.983              11.898              
H              26.678              -9.573              13.411              
H              26.503              -11.779             12.565              
H              26.35               -11.184             11.052              
H              28.533              -10.321             11.159              
H              28.687              -10.881             12.686              
H              28.42               -13.095             11.878              
H              28.335              -12.514             10.355              
H              30.566              -11.602             10.734              
H              30.619              -12.551             12.062              
H              30.474              -13.225             10.582              
N              24.653              -8.747              14.937              
C              24.456              -7.687              15.899              
C              25.671              -6.782              15.809              
O              26.808              -7.263              15.811              
C              24.336              -8.276              17.3                
C              23.196              -9.234              17.443              
H              25.001              -9.688              15.167              
H              23.654              -7.161              15.642              
H              25.186              -8.761              17.527              
H              24.205              -7.53               17.96               
N              21.918              -8.825              17.748              
C              23.132              -10.58              17.287              
C              21.117              -9.875              17.79               
N              21.83               -10.952             17.516              
H              21.639              -7.877              17.912              
H              23.887              -11.185             17.052              
H              20.143              -9.858              17.995              
N              25.454              -5.476              15.721              
C              26.607              -4.583              15.647              
C              26.971              -4.099              17.041              
O              26.108              -4                  17.914              
C              26.376              -3.4                14.685              
C              25.289              -2.447              15.22               
C              26.031              -3.923              13.294              
C              25.208              -1.111              14.469              
H              24.484              -5.175              15.711              
H              27.373              -5.14               15.326              
H              27.226              -2.885              14.619              
H              24.407              -2.904              15.152              
H              25.485              -2.257              16.179              
H              25.947              -3.155              12.662              
H              26.755              -4.535              12.981              
H              25.167              -4.42               13.332              
H              25.004              -1.293              13.512              
H              24.486              -0.559              14.875              
H              26.084              -0.644              14.55               
N              28.256              -3.817              17.26               
C              28.684              -3.167              18.485              
C              29.344              -1.845              18.126              
O              30.309              -1.814              17.357              
C              29.665              -4.023              19.281              
C              28.995              -5.341              19.678              
C              30.123              -3.258              20.529              
C              29.968              -6.399              20.212              
H              28.899              -4.097              16.498              
H              27.855              -2.943              18.993              
H              30.438              -4.238              18.697              
H              28.313              -5.155              20.382              
H              28.535              -5.717              18.876              
H              30.775              -3.817              21.035              
H              30.556              -2.405              20.25               
H              29.332              -3.062              21.102              
H              30.423              -6.038              21.021              
H              29.454              -7.219              20.445              
H              30.639              -6.604              19.505              
N              28.791              -0.752              18.64               
C              29.345              0.578               18.371              
C              29.743              1.288               19.663              
O              29.212              1.008               20.737              
C              28.363              1.479               17.571              
C              28.113              0.882               16.175              
C              27.04               1.643               18.328              
H              27.958              -0.914              19.231              
H              30.175              0.462               17.812              
H              28.804              2.355               17.433              
H              28.971              0.521               15.817              
H              27.442              0.148               16.25               
H              27.768              1.597               15.572              
H              26.522              2.391               17.918              
H              26.521              0.793               18.262              
H              27.237              1.848               19.285              
N              30.704              2.198               19.546              
C              31.09               3.054               20.661              
C              30.34               4.352               20.485              
O              30.273              4.879               19.381              
C              32.575              3.321               20.629              
H              31.148              2.245               18.608              
H              30.806              2.626               21.509              
H              33.062              2.501               20.322              
H              32.772              4.074               19.999              
H              32.896              3.568               21.545              
N              29.776              4.86                21.574              
H              29.931              4.31                22.443              
H              39.2239             -5.34514            -1.75535            
H              29.2376             5.71833             21.5483             
