239
2.xyz
C              32.008              -13.153             8.023               
C              31.59               -14.097             6.902               
O              31.758              -15.3               7.004               
C              30.787              -12.706             8.845               
H              32.621              -13.657             8.649               
H              29.956              -13.023             8.394               
H              30.847              -13.1               9.759               
H              30.781              -11.711             8.905               
N              31.076              -13.555             5.808               
C              30.516              -14.417             4.767               
C              31.603              -15.215             4.013               
O              31.301              -16.169             3.296               
C              29.621              -13.598             3.827               
C              28.16               -13.477             4.307               
C              27.979              -12.824             5.687               
H              31.103              -12.532             5.756               
H              29.905              -15.088             5.21                
H              29.991              -12.675             3.749               
H              29.609              -14.034             2.928               
H              27.65               -12.932             3.633               
H              27.761              -14.4               4.34                
O              28.292              -11.641             5.886               
N              27.44               -13.59              6.641               
H              27.306              -13.229             7.573               
H              27.169              -14.541             6.405               
N              32.862              -14.825             4.21                
C              34.016              -15.43              3.529               
C              34.89               -16.27              4.497               
O              35.92               -16.824             4.112               
H              32.964              -14.041             4.9                 
H              33.673              -16.051             2.814               
N              34.469              -16.376             5.756               
C              35.215              -17.137             6.742               
C              36.681              -16.663             6.847               
O              37.633              -17.454             6.994               
C              35.135              -18.633             6.422               
C              35.159              -19.505             7.663               
H              33.582              -15.878             5.961               
H              34.795              -16.965             7.643               
H              34.285              -18.804             5.93                
H              35.915              -18.873             5.849               
O              35.07               -20.739             7.56                
N              35.318              -18.887             8.842               
H              35.407              -17.889             8.854               
H              35.346              -19.411             9.682               
N              36.851              -15.353             6.769               
C              38.195              -14.78              6.741               
C              38.235              -13.464             7.515               
O              37.178              -12.888             7.813               
C              38.63               -14.589             5.284               
O              37.9                -13.547             4.654               
H              35.987              -14.792             6.731               
H              38.818              -15.424             7.195               
H              39.6                -14.361             5.266               
H              38.472              -15.44              4.789               
H              36.993              -13.481             5.066               
N              39.435              -13.035             7.895               
C              39.65               -11.675             8.373               
C              40.988              -11.139             7.885               
O              41.896              -11.916             7.593               
C              39.53               -11.583             9.914               
C              40.657              -12.267             10.68               
C              41.768              -11.541             11.081              
C              40.594              -13.636             11.004              
C              42.8                -12.145             11.79               
C              41.632              -14.231             11.711              
C              42.721              -13.481             12.089              
H              40.193              -13.743             7.822               
H              38.937              -11.101             7.957               
H              39.537              -10.626             10.159              
H              38.682              -12.017             10.175              
H              41.833              -10.57              10.862              
H              39.805              -14.168             10.725              
H              43.592              -11.594             12.073              
H              41.576              -15.217             11.941              
H              43.479              -13.921             12.598              
N              41.115              -9.815              7.814               
C              42.376              -9.201              7.411               
C              42.871              -8.22               8.462               
O              42.063              -7.518              9.038               
C              42.167              -8.494              6.067               
O              41.785              -9.48               5.109               
C              43.45               -7.778              5.595               
H              40.267              -9.279              8.062               
H              43.066              -9.929              7.305               
H              41.408              -7.827              6.16                
H              43.941              -7.424              6.39                
H              44.028              -8.428              5.105               
H              43.202              -7.024              4.989               
H              41.08               -10.089             5.491               
N              44.178              -8.215              8.727               
C              44.799              -7.213              9.596               
C              45.721              -6.335              8.759               
O              46.672              -6.865              8.158               
C              45.605              -7.926              10.69               
C              46.053              -6.99               11.806              
C              46.603              -7.769              12.983              
N              46.819              -6.902              14.141              
C              47.945              -6.241              14.371              
N              48.954              -6.32               13.512              
N              48.064              -5.491              15.461              
H              44.715              -8.98               8.266               
H              44.083              -6.642              9.993               
H              45.033              -8.63               11.088              
H              46.413              -8.319              10.274              
H              46.769              -6.389              11.465              
H              45.274              -6.456              12.12               
H              45.948              -8.478              13.222              
H              47.47               -8.174              12.711              
H              46.067              -6.803              14.8                
H              48.878              -6.856              12.676              
H              49.812              -5.829              13.707              
H              47.291              -5.414              16.095              
H              48.915              -5.007              15.648              
N              45.436              -5.023              8.69                
C              46.353              -4.039              8.09                
C              47.234              -3.368              9.137               
O              46.782              -3.098              10.248              
C              45.614              -2.892              7.381               
C              44.884              -3.253              6.115               
C              45.338              -3.031              4.789               
C              43.596              -3.861              6.001               
N              44.357              -3.455              3.901               
C              43.301              -3.979              4.61                
C              42.63               -4.296              6.949               
C              42.081              -4.524              4.126               
C              41.398              -4.902              6.448               
C              41.148              -4.976              5.054               
H              44.513              -4.764              9.097               
H              46.957              -4.539              7.455               
H              44.936              -2.51               8.012               
H              46.279              -2.18               7.144               
H              46.204              -2.642              4.557               
H              44.413              -3.389              2.908               
H              42.758              -4.207              7.912               
H              41.914              -4.573              3.14                
H              40.761              -5.249              7.102               
H              40.286              -5.36               4.741               
N              48.491              -3.141              8.782               
C              49.424              -2.4                9.623               
C              50.079              -1.326              8.76                
O              50.42               -1.599              7.611               
C              50.476              -3.354              10.262              
C              51.156              -4.203              9.205               
C              51.49               -2.591              11.088              
H              48.756              -3.537              7.851               
H              48.907              -1.945              10.341              
H              49.983              -3.972              10.868              
H              51.351              -3.644              8.398               
H              52.014              -4.57               9.568               
H              50.556              -4.961              8.945               
H              52.032              -1.999              10.489              
H              51.014              -2.031              11.768              
H              52.096              -3.238              11.554              
N              50.2                -0.111              9.285               
C              50.851              0.934               8.532               
C              51.04               2.225               9.289               
O              51.052              2.262               10.522              
H              49.806              0.004               10.228              
H              51.764              0.598               8.21                
H              50.312              1.121               7.68                
N              51.164              3.3                 8.518               
C              51.303              4.632               9.077               
C              50.476              5.602               8.224               
O              49.975              5.241               7.161               
C              52.781              5.093               9.035               
O              53.248              5.017               7.671               
C              53.67               4.22                9.93                
H              51.153              3.104               7.496               
H              50.93               4.638               10.001              
H              52.83               6.062               9.332               
H              53.195              4.031               10.79               
H              53.87               3.358               9.463               
H              54.526              4.701               10.121              
H              52.569              5.422               7.052               
N              50.361              6.84                8.686               
C              49.687              7.886               7.919               
C              50.683              8.988               7.683               
O              51.285              9.494               8.64                
C              48.44               8.483               8.644               
C              47.5                7.405               9.149               
C              47.657              9.442               7.737               
C              47.41               7.397               10.659              
H              50.782              7                   9.621               
H              49.476              7.485               7.033               
H              48.777              9.006               9.428               
H              46.596              7.564               8.773               
H              47.837              6.521               8.846               
H              46.917              9.856               8.26                
H              48.272              10.152              7.403               
H              47.282              8.932               6.968               
H              47.071              8.282               10.976              
H              46.783              6.675               10.95               
H              48.316              7.228               11.044              
N              50.905              9.317               6.412               
C              51.638              10.531              6.06                
C              50.683              11.444              5.298               
O              50.538              11.331              4.078               
C              52.901              10.243              5.238               
C              54.097              11.127              5.67                
C              54.968              11.585              4.498               
C              54.514              12.934              3.958               
N              55.459              13.473              2.942               
H              50.523              8.655               5.715               
H              51.926              10.99               6.893               
H              53.158              9.3                 5.373               
H              52.71               10.434              4.288               
H              53.737              11.936              6.144               
H              54.664              10.602              6.311               
H              55.907              11.667              4.813               
H              54.902              10.912              3.77                
H              53.607              12.828              3.541               
H              54.445              13.583              4.721               
H              56.09               14.112              3.382               
H              55.975              12.719              2.536               
H              54.944              13.948              2.229               
N              50.02               12.321              6.045               
C              49.048              13.27               5.49                
C              47.799              12.608              4.934               
O              46.974              12.099              5.689               
H              50.248              12.279              7.065               
H              48.783              13.932              6.216               
H              49.498              13.81               4.754               
N              47.659              12.629              3.615               
C              46.495              12.04               2.943               
C              46.798              10.635              2.406               
O              45.949              10.018              1.763               
C              46.01               12.943              1.805               
O              46.898              12.896              0.704               
H              48.435              13.093              3.1                 
H              45.754              11.956              3.621               
H              45.111              12.633              1.512               
H              45.957              13.879              2.141               
H              46.98               11.954              0.381               
N              48.008              10.142              2.669               
H              48.642              10.799              3.174               
H              34.589              -14.6493            3.05032             
H              48.2869             9.20249             2.39839             
H              32.5117             -12.3145            7.64741             
