389
0.xyz
N              45.231              10.51               13.152              
C              44.127              10.06               12.229              
C              42.849              10.895              12.306              
O              42.137              10.866              13.332              
C              43.794              8.575               12.457              
C              42.755              7.912               11.557              
C              43.268              7.909               10.115              
C              42.469              6.504               12.047              
H              46.04               9.962               12.971              
H              44.492              10.106              11.281              
H              44.651              8.057               12.357              
H              43.473              8.482               13.406              
H              41.906              8.426               11.601              
H              44.126              7.4                 10.071              
H              42.589              7.475               9.524               
H              43.42               8.85                9.817               
H              42.118              6.539               12.984              
H              41.787              6.073               11.454              
H              43.312              5.964               12.029              
H              45.42               11.47               12.978              
H              44.932              10.383              14.091              
N              42.526              11.627              11.218              
C              41.278              12.401              11.224              
C              40.016              11.496              11.256              
O              39.973              10.448              10.606              
C              41.341              13.219              9.93                
C              42.33               12.504              9.046               
C              43.284              11.769              9.953               
H              41.258              13.048              12                  
H              40.438              13.259              9.489               
H              41.647              14.158              10.116              
H              41.848              11.861              8.434               
H              42.823              13.17               8.468               
H              43.519              10.869              9.586               
H              44.123              12.294              10.107              
N              39.031              11.888              12.054              
C              37.787              11.145              12.155              
C              36.616              12.116              12.358              
O              36.716              13.014              13.205              
C              37.866              10.147              13.302              
H              39.226              12.758              12.59               
H              37.633              10.641              11.302              
H              37.024              10.188              13.839              
H              37.981              9.224               12.935              
H              38.645              10.371              13.887              
N              35.509              11.936              11.613              
C              35.359              10.902              10.58               
C              36.186              11.253              9.369               
O              36.466              12.438              9.135               
C              33.892              10.987              10.174              
C              33.38               12.301              10.704              
C              34.303              12.775              11.772              
H              35.61               10.001              10.946              
H              33.794              10.951              9.169               
H              33.365              10.22               10.565              
H              33.318              12.977              9.944               
H              32.434              12.181              11.062              
H              34.54               13.745              11.659              
H              33.911              12.647              12.69               
N              36.555              10.232              8.604               
C              37.277              10.439              7.347               
C              37.031              9.243               6.441               
O              36.532              8.226               6.88                
C              38.771              10.633              7.626               
O              39.369              9.493               8.23                
H              36.294              9.296               8.964               
H              36.899              11.249              6.903               
H              39.238              10.821              6.76                
H              38.884              11.418              8.238               
H              39.625              9.713               9.17                
N              37.404              9.349               5.163               
C              36.967              8.333               4.228               
C              38.112              8.169               3.286               
O              38.702              9.16                2.856               
C              35.69               8.795               3.486               
C              35.169              7.832               2.454               
C              34.658              6.595               2.814               
C              35.154              8.176               1.103               
C              34.176              5.714               1.868               
C              34.672              7.295               0.152               
C              34.194              6.076               0.542               
O              33.721              5.21                -0.403              
H              37.982              10.154              4.931               
H              36.833              7.488               4.723               
H              34.978              8.944               4.173               
H              35.9                9.663               3.034               
H              34.638              6.333               3.785               
H              35.495              9.07                0.822               
H              33.816              4.821               2.146               
H              34.676              7.555               -0.817              
H              34.399              4.493               -0.566              
N              38.465              6.913               3.034               
C              39.672              6.601               2.275               
C              39.367              5.485               1.297               
O              38.507              4.638               1.544               
C              40.766              6.104               3.22                
C              41.069              6.982               4.4                 
C              40.236              7.285               5.465               
C              42.313              7.63                4.662               
N              40.907              8.1                 6.362               
C              42.181              8.322               5.893               
C              43.54               7.706               3.97                
C              43.23               9.091               6.437               
C              44.577              8.463               4.524               
C              44.414              9.14                5.744               
H              37.825              6.193               3.414               
H              39.918              7.414               1.746               
H              40.497              5.208               3.583               
H              41.62               6.004               2.702               
H              39.305              6.967               5.567               
H              40.528              8.464               7.207               
H              43.671              7.233               3.108               
H              43.094              9.579               7.303               
H              45.443              8.518               4.038               
H              45.183              9.666               6.107               
N              40.098              5.452               0.182               
C              39.916              4.359               -0.767              
C              41.291              3.846               -1.117              
O              42.246              4.652               -1.116              
C              39.287              4.904               -2.043              
C              37.813              5.262               -1.988              
C              37.328              5.414               -3.429              
C              38.395              4.743               -4.33               
N              38.165              4.788               -5.805              
H              40.761              6.222               0.061               
H              39.397              3.634               -0.329              
H              39.8                5.733               -2.315              
H              39.415              4.214               -2.774              
H              37.313              4.532               -1.559              
H              37.699              6.119               -1.521              
H              36.49               4.935               -3.541              
H              37.285              6.357               -3.659              
H              39.297              5.178               -4.121              
H              38.481              3.766               -4.037              
H              38.304              3.876               -6.188              
H              37.23               5.089               -5.983              
H              38.81               5.428               -6.219              
N              41.433              2.546               -1.422              
C              42.783              2.065               -1.735              
C              42.909              1.863               -3.237              
O              41.956              2.152               -3.969              
C              43.219              0.832               -0.95               
C              42.425              -0.41               -1.271              
H              40.598              1.984               -1.415              
H              43.42               2.792               -1.479              
H              44.185              0.656               -1.152              
H              43.121              1.031               0.028               
O              41.84               -0.513              -2.334              
N              42.397              -1.384              -0.304              
H              42.889              -1.216              0.543               
H              41.897              -2.214              -0.469              
N              44.077              1.398               -3.674              
C              44.332              1.312               -5.132              
C              43.506              0.236               -5.811              
O              43.392              0.203               -7.066              
C              45.804              1.071               -5.442              
C              46.749              2.142               -4.924              
C              48.234              1.758               -5.095              
O              49.063              2.678               -5.205              
O              48.576              0.546               -5.117              
H              44.75               1.119               -2.962              
H              44.134              2.213               -5.55               
H              46.065              0.216               -5.021              
H              45.905              1.035               -6.424              
H              46.606              2.964               -5.438              
H              46.595              2.263               -3.964              
N              42.924              -0.655              -5.011              
C              42.133              -1.764              -5.56               
C              40.66               -1.358              -5.71               
O              39.858              -2.087              -6.314              
C              42.244              -2.964              -4.609              
C              43.657              -3.322              -4.235              
C              43.686              -4.483              -3.287              
N              45.043              -4.677              -2.791              
C              45.787              -5.721              -3.102              
N              45.302              -6.648              -3.909              
N              47.02               -5.833              -2.61               
H              43.072              -0.505              -4.001              
H              42.493              -2                  -6.467              
H              41.742              -2.742              -3.777              
H              41.826              -3.749              -5.058              
H              44.168              -3.571              -5.056              
H              44.093              -2.541              -3.791              
H              43.086              -4.287              -2.525              
H              43.397              -5.296              -3.772              
H              45.427              -3.979              -2.182              
H              44.395              -6.577              -4.311              
H              45.869              -7.459              -4.13               
H              47.381              -5.108              -2.019              
H              47.577              -6.629              -2.828              
N              40.313              -0.202              -5.132              
C              38.985              0.356               -5.192              
C              38.218              0.206               -3.88               
O              37.028              0.56                -3.804              
H              41.112              0.264               -4.625              
H              39.038              1.343               -5.428              
H              38.456              -0.096              -5.933              
N              38.848              -0.422              -2.903              
C              38.126              -0.72               -1.635              
C              37.96               0.541               -0.804              
O              38.768              1.455               -0.945              
C              38.855              -1.796              -0.845              
O              38.789              -3.077              -1.522              
H              39.82               -0.677              -3.07               
H              37.216              -1.06               -1.884              
H              39.812              -1.548              -0.749              
H              38.43               -1.899              0.047               
H              39.456              -3.081              -2.258              
N              36.983              0.565               0.136               
C              36.582              1.824               0.794               
C              36.728              1.62                2.291               
O              36.306              0.583               2.776               
C              35.079              2.125               0.576               
C              34.479              1.971               -0.827              
C              32.941              2.072               -0.822              
O              32.248              1.136               -1.314              
O              32.399              3.083               -0.306              
H              36.56               -0.35               0.341               
H              37.174              2.558               0.49                
H              34.566              1.515               1.186               
H              34.925              3.074               0.861               
H              34.815              2.698               -1.387              
H              34.709              1.084               -1.167              
N              37.328              2.588               2.99                
C              37.457              2.517               4.435               
C              36.9                3.803               5.022               
O              37.406              4.891               4.738               
C              38.944              2.354               4.788               
C              39.279              2.459               6.278               
C              38.699              1.294               7.038               
C              40.8                2.534               6.51                
H              37.685              3.377               2.416               
H              36.913              1.753               4.771               
H              39.231              1.456               4.48                
H              39.447              3.066               4.317               
H              38.901              3.317               6.632               
H              39.076              0.434               6.685               
H              38.925              1.374               8.012               
H              37.702              1.281               6.934               
H              41.161              3.339               6.044               
H              40.977              2.601               7.49                
H              41.226              1.71                6.144               
N              35.88               3.678               5.862               
C              35.254              4.829               6.462               
C              35.69               4.779               7.895               
O              35.466              3.758               8.538               
C              33.729              4.652               6.393               
C              32.682              5.744               6.682               
C              31.72               5.424               7.789               
C              33.168              7.195               6.735               
H              35.584              2.697               6.041               
H              35.613              5.646               6.045               
H              33.513              4.293               5.442               
H              33.492              3.856               7.016               
H              32.166              5.92                5.82                
H              32.219              5.278               8.648               
H              31.074              6.182               7.914               
H              31.205              4.591               7.568               
H              33.571              7.44                5.854               
H              32.393              7.796               6.929               
H              33.854              7.287               7.456               
N              36.376              5.814               8.362               
C              36.792              5.888               9.764               
C              35.788              6.774               10.473              
O              35.67               7.971               10.171              
C              38.26               6.375               9.906               
C              39.191              5.32                9.286               
C              38.606              6.585               11.407              
C              40.619              5.695               9.245               
H              36.589              6.552               7.665               
H              36.683              4.975               10.133              
H              38.353              7.208               9.389               
H              39.075              4.468               9.811               
H              38.861              5.142               8.35                
H              39.548              6.893               11.475              
H              37.991              7.269               11.782              
H              38.491              5.721               11.883              
H              40.964              5.86                10.175              
H              41.162              4.959               8.828               
H              40.745              6.532               8.703               
N              35.017              6.193               11.378              
C              33.966              6.987               12.011              
C              34.483              7.712               13.24               
O              34.197              8.897               13.429              
C              32.713              6.173               12.334              
C              31.56               7.093               12.419              
C              30.806              7.386               13.527              
C              31.081              7.943               11.363              
N              29.855              8.336               13.208              
C              30.014              8.703               11.891              
C              31.448              8.124               10.022              
C              29.298              9.617               11.119              
C              30.742              9.04                9.254               
C              29.674              9.771               9.805               
H              35.206              5.215               11.58               
H              33.669              7.684               11.346              
H              32.549              5.544               11.607              
H              32.829              5.747               13.203              
H              30.923              6.978               14.426              
H              29.165              8.698               13.83               
H              32.201              7.608               9.623               
H              28.538              10.136              11.519              
H              30.996              9.178               8.305               
H              29.183              10.416              9.219               
N              35.274              7.025               14.055              
C              35.856              7.67                15.226              
C              37.209              7.064               15.526              
O              37.548              5.972               15.019              
C              34.93               7.468               16.427              
O              34.67               6.107               16.591              
H              35.432              6.042               13.799              
H              35.988              8.641               15.012              
H              35.381              7.823               17.236              
H              34.082              7.953               16.255              
H              34.86               5.615               15.738              
N              37.985              7.781               16.332              
C              39.258              7.286               16.819              
C              39.415              7.627               18.293              
O              40.476              8.003               18.76               
C              40.417              7.841               15.979              
H              37.6                8.719               16.579              
H              39.282              6.287               16.717              
H              40.25               8.805               15.786              
H              41.268              7.742               16.489              
H              40.475              7.331               15.124              
N              38.333              7.476               19.023              
C              38.325              7.798               20.45               
C              39.267              6.968               21.332              
O              39.249              5.741               21.301              
C              36.908              7.729               20.921              
C              36.014              8.717               20.199              
H              37.5                7.117               18.518              
H              38.627              8.773               20.537              
H              36.55               6.811               20.758              
H              36.874              7.936               21.897              
O              36.397              9.876               19.976              
N              34.819              8.285               19.828              
H              34.546              7.341               20.037              
H              34.19               8.89                19.344              
N              40.09               7.654               22.125              
C              41.136              7.037               22.954              
C              42.115              6.238               22.116              
O              42.758              5.35                22.635              
C              40.555              6.119               24.063              
O              40.333              6.843               25.272              
H              39.928              8.693               22.11               
H              41.644              7.781               23.409              
H              39.691              5.748               23.742              
H              41.205              5.388               24.236              
H              41.157              7.356               25.504              
N              42.228              6.555               20.828              
C              43.141              5.822               19.966              
C              42.585              4.539               19.361              
O              43.293              3.879               18.588              
H              41.633              7.335               20.512              
H              43.451              6.438               19.205              
H              43.992              5.596               20.494              
N              41.34               4.196               19.693              
C              40.69               3.011               19.11               
C              39.887              3.391               17.893              
O              38.955              4.173               17.943              
C              39.746              2.281               20.066              
O              38.761              3.195               20.534              
C              40.504              1.683               21.23               
H              40.88               4.818               20.378              
H              41.411              2.364               18.837              
H              39.274              1.533               19.558              
H              40.225              0.729               21.369              
H              41.491              1.709               21.048              
H              40.314              2.202               22.068              
H              39.181              4.08                20.769              
N              40.289              2.832               16.762              
C              39.65               3.139               15.492              
C              40.617              2.679               14.338              
C              41.891              3.512               14.3                
C              39.923              2.675               12.947              
C              42.889              2.994               13.226              
H              41.083              2.169               16.859              
H              39.395              4.104               15.532              
H              40.86               1.73                14.525              
H              41.667              4.447               14.081              
H              42.341              3.46                15.178              
H              40.549              2.287               12.281              
H              39.098              2.125               13.006              
H              39.696              3.611               12.703              
H              42.445              3.044               12.34               
H              43.695              3.572               13.247              
H              43.124              2.056               13.448              
H              38.7287             2.5724              15.4166             
