259
0.xyz
N              -2.709              9.234               0.675               
C              -3.874              8.325               0.435               
C              -3.65               6.901               0.956               
O              -4.611              6.22                1.317               
C              -4.213              8.282               -1.058              
C              -4.572              9.646               -1.58               
S              -6.029              10.227              -0.639              
C              -7.201              8.931               -1.053              
H              -3.048              10.14               0.911               
H              -4.667              8.72                0.923               
H              -3.419              7.939               -1.559              
H              -4.988              7.665               -1.195              
H              -3.807              10.276              -1.448              
H              -4.794              9.594               -2.555              
H              -7.95               9.318               -1.592              
H              -6.739              8.222               -1.586              
H              -7.567              8.532               -0.213              
H              -2.163              8.869               1.424               
H              -2.16               9.282               -0.154              
N              -2.393              6.455               0.98                
C              -2.038              5.121               1.472               
C              -2.273              5.015               2.985               
O              -1.835              5.87                3.751               
C              -0.566              4.783               1.12                
C              -0.064              3.555               1.873               
C              -0.431              4.58                -0.384              
H              -1.688              7.134               0.62                
H              -2.636              4.451               1.021               
H              -0.003              5.556               1.412               
H              -0.526              2.74                1.525               
H              0.922               3.463               1.739               
H              -0.26               3.659               2.847               
H              0.102               3.753               -0.558              
H              -1.341              4.485               -0.786              
H              0.033               5.37                -0.782              
N              -2.975              3.959               3.394               
C              -3.295              3.69                4.79                
C              -2.391              2.631               5.42                
O              -2.193              2.646               6.635               
C              -4.746              3.249               4.891               
C              -5.756              4.298               4.415               
C              -7.159              3.72                4.459               
C              -5.681              5.579               5.238               
H              -3.283              3.327               2.61                
H              -3.187              4.551               5.317               
H              -4.867              2.447               4.325               
H              -4.947              3.056               5.839               
H              -5.532              4.561               3.48                
H              -7.382              3.45                5.397               
H              -7.816              4.408               4.147               
H              -7.211              2.918               3.862               
H              -4.764              5.971               5.161               
H              -6.354              6.235               4.896               
H              -5.876              5.371               6.197               
N              -1.861              1.714               4.603               
C              -0.934              0.69                5.089               
C              0.183               0.56                4.068               
O              -0.071              0.335               2.882               
C              -1.613              -0.674              5.269               
C              -2.868              -0.62               6.126               
C              -3.509              -1.969              6.389               
O              -2.907              -3.025              6.116               
O              -4.655              -1.964              6.876               
H              -2.16               1.792               3.613               
H              -0.56               0.965               5.967               
H              -1.872              -0.997              4.379               
H              -0.972              -1.27               5.713               
H              -2.626              -0.23               7.003               
H              -3.538              -0.059              5.66                
N              1.421               0.697               4.525               
C              2.56                0.417               3.677               
C              2.658               -1.078              3.41                
O              2.224               -1.913              4.21                
C              3.851               0.9                 4.33                
C              3.978               2.396               4.485               
C              3.484               3.28                3.525               
C              4.651               2.933               5.57                
C              3.65                4.644               3.653               
C              4.812               4.301               5.709               
C              4.308               5.152               4.749               
O              4.452               6.514               4.868               
H              1.493               1.011               5.508               
H              2.427               0.882               2.796               
H              3.915               0.485               5.242               
H              4.623               0.579               3.774               
H              2.999               2.913               2.726               
H              5.027               2.322               6.268               
H              3.29                5.264               2.948               
H              5.295               4.671               6.506               
H              5.005               6.853               4.109               
N              3.24                -1.41               2.268               
C              3.525               -2.791              1.929               
C              4.992               -3.121              2.152               
O              5.736               -2.345              2.75                
H              3.471               -0.607              1.647               
H              2.957               -3.403              2.496               
H              3.291               -2.958              0.962               
N              5.417               -4.275              1.656               
C              6.831               -4.612              1.674               
C              7.126               -5.662              0.608               
O              6.229               -6.311              0.058               
C              7.342               -5.031              3.064               
C              6.754               -6.316              3.63                
C              7.232               -6.618              5.037               
O              8.356               -6.165              5.405               
O              6.492               -7.308              5.774               
H              4.682               -4.889              1.271               
H              7.38                -3.792              1.495               
H              8.323               -5.156              2.993               
H              7.123               -4.298              3.693               
H              5.776               -6.218              3.662               
H              7.033               -7.063              3.054               
N              8.41                -5.784              0.319               
C              8.909               -6.649              -0.741              
C              10.337              -7.044              -0.418              
O              10.999              -6.403              0.404               
C              8.856               -5.933              -2.081              
H              9.044               -5.202              0.921               
H              8.346               -7.474              -0.778              
H              9.386               -6.446              -2.756              
H              7.907               -5.865              -2.387              
H              9.24                -5.015              -1.986              
N              10.822              -8.077              -1.108              
C              12.243              -8.424              -1.089              
C              12.742              -8.395              -2.527              
O              12.14               -8.993              -3.425              
C              12.522              -9.797              -0.413              
C              12.197              -9.739              1.084               
C              13.986              -10.182             -0.572              
C              12.226              -11.08              1.802               
H              10.112              -8.606              -1.653              
H              12.704              -7.686              -0.611              
H              11.923              -10.467             -0.835              
H              12.853              -9.123              1.526               
H              11.281              -9.342              1.19                
H              14.143              -11.075             -0.154              
H              14.216              -10.225             -1.543              
H              14.561              -9.499              -0.124              
H              13.138              -11.475             1.72                
H              12.003              -10.941             2.764               
H              11.555              -11.689             1.385               
N              13.861              -7.719              -2.755              
C              14.422              -7.648              -4.088              
C              14.766              -9.037              -4.619              
O              15.394              -9.845              -3.926              
C              15.677              -6.787              -4.084              
H              14.278              -7.266              -1.925              
H              13.745              -7.23               -4.709              
H              15.478              -5.904              -4.509              
H              15.98               -6.642              -3.142              
H              16.4                -7.248              -4.598              
N              14.386              -9.299              -5.873              
C              14.681              -10.578             -6.531              
C              15.617              -10.425             -7.73               
O              16.032              -11.428             -8.308              
C              13.408              -11.323             -6.93               
C              12.581              -10.661             -7.997              
C              11.294              -11.434             -8.191              
C              10.439              -10.878             -9.308              
N              9.204               -11.693             -9.481              
H              13.868              -8.526              -6.339              
H              15.119              -11.194             -5.856              
H              13.675              -12.238             -7.252              
H              12.842              -11.429             -6.104              
H              12.36               -9.732              -7.718              
H              13.086              -10.654             -8.854              
H              11.519              -12.387             -8.405              
H              10.766              -11.403             -7.34               
H              10.182              -9.937              -9.089              
H              10.961              -10.891             -10.16              
H              9.268               -12.214             -10.332             
H              9.111               -12.321             -8.709              
H              8.41                -11.087             -9.517              
N              15.914              -9.185              -8.115              
C              16.927              -8.852              -9.116              
C              17.725              -7.674              -8.571              
O              17.255              -6.919              -7.713              
C              16.286              -8.452              -10.455             
C              15.645              -9.599              -11.183             
C              16.435              -10.518             -11.853             
C              14.263              -9.764              -11.212             
C              15.867              -11.582             -12.537             
C              13.688              -10.825             -11.902             
C              14.492              -11.732             -12.566             
H              15.343              -8.444              -7.625              
H              17.549              -9.623              -9.168              
H              15.589              -7.78               -10.264             
H              16.999              -8.082              -11.029             
H              17.428              -10.418             -11.846             
H              13.678              -9.112              -10.73              
H              16.464              -12.242             -13.012             
H              12.68               -10.924             -11.914             
H              14.085              -12.497             -13.067             
N              18.939              -7.522              -9.077              
C              19.762              -6.362              -8.773              
C              19.282              -5.184              -9.611              
O              19.011              -5.337              -10.797             
C              21.227              -6.676              -9.074              
C              21.756              -7.781              -8.183              
H              19.25               -8.295              -9.704              
H              19.602              -6.124              -7.816              
H              21.299              -6.968              -10.02              
H              21.763              -5.856              -8.917              
O              21.627              -7.697              -6.962              
N              22.339              -8.817              -8.773              
H              22.413              -8.828              -9.776              
H              22.698              -9.571              -8.235              
N              19.158              -4.015              -8.985              
C              18.674              -2.816              -9.675              
C              19.646              -1.664              -9.477              
O              19.93               -1.27               -8.346              
C              17.293              -2.394              -9.164              
C              16.775              -1.141              -9.826              
C              16.641              -1.071              -11.213             
C              16.434              -0.026              -9.069              
C              16.184              0.086               -11.83              
C              15.972              1.126               -9.681              
C              15.851              1.185               -11.062             
H              19.429              -4.025              -7.983              
H              18.667              -3.029              -10.656             
H              16.662              -3.124              -9.359              
H              17.368              -2.219              -8.198              
H              16.875              -1.863              -11.771             
H              16.523              -0.059              -8.074              
H              16.101              0.114               -12.832             
H              15.723              1.931               -9.113              
H              15.523              2.022               -11.502             
N              20.148              -1.126              -10.58              
C              20.947              0.086               -10.56              
C              20.112              1.25                -11.08              
O              19.752              1.283               -12.261             
C              22.204              -0.093              -11.407             
C              23.155              -1.117              -10.818             
H              19.92               -1.647              -11.457             
H              21.165              0.287               -9.604              
H              21.933              -0.397              -12.315             
H              22.675              0.782               -11.463             
O              23.471              -1.069              -9.632              
N              23.617              -2.048              -11.642             
H              23.335              -2.042              -12.605             
H              24.242              -2.751              -11.31              
N              19.774              2.171               -10.181             
C              19.056              3.38                -10.546             
C              20.01               4.301               -11.274             
O              21.19               4.378               -10.933             
H              20.067              1.949               -9.205              
H              18.29               3.15                -11.143             
H              18.716              3.831               -9.723              
N              19.519              4.986               -12.293             
C              20.372              5.876               -13.063             
C              20.141              5.665               -14.556             
C              21.274              6.211               -15.396             
O              22.448              5.991               -15.028             
O              20.994              6.857               -16.423             
H              18.516              4.839               -12.486             
H              21.333              5.651               -12.827             
H              20.062              4.689               -14.72              
H              19.302              6.131               -14.807             
H              20.2241             6.93379             -12.8138            
