171
2.xyz
C              6.879               1.358               -6.72               
C              7.815               2.469               -6.256              
O              8.938               2.584               -6.743              
C              7.122               0.154               -5.781              
C              5.967               -0.815              -5.688              
C              4.75                -0.409              -5.171              
C              6.095               -2.137              -6.084              
C              3.68                -1.281              -5.063              
C              5.028               -3.023              -5.974              
C              3.821               -2.585              -5.473              
O              2.769               -3.466              -5.377              
H              5.936               1.693               -6.647              
H              7.923               -0.338              -6.118              
H              7.308               0.513               -4.868              
H              4.636               0.544               -4.864              
H              6.963               -2.461              -6.455              
H              2.806               -0.958              -4.688              
H              5.141               -3.977              -6.259              
H              2.022               -3.15               -5.959              
N              7.357               3.235               -5.257              
C              8.244               4.019               -4.407              
C              8.423               3.234               -3.125              
O              7.438               2.76                -2.547              
C              7.646               5.39                -4.098              
C              8.623               6.304               -3.371              
C              7.998               7.556               -2.791              
O              6.755               7.664               -2.764              
O              8.774               8.428               -2.334              
H              6.321               3.218               -5.146              
H              9.12                4.141               -4.854              
H              7.417               5.817               -4.948              
H              6.873               5.257               -3.514              
H              9.021               5.794               -2.622              
H              9.317               6.589               -4.016              
N              9.665               3.106               -2.665              
C              9.933               2.381               -1.443              
C              11.08               2.983               -0.677              
O              11.695              3.959               -1.096              
H              10.393              3.559               -3.245              
H              9.102               2.381               -0.862              
H              10.145              1.415               -1.664              
N              11.349              2.388               0.475               
C              12.439              2.823               1.333               
C              13.041              1.616               2.028               
O              12.379              0.609               2.258               
C              11.989              3.869               2.341               
C              11.009              3.333               3.32                
C              10.564              4.426               4.247               
N              9.822               3.837               5.35                
C              8.902               4.457               6.076               
N              8.553               5.71                5.811               
N              8.314               3.802               7.065               
H              10.719              1.591               0.71                
H              13.145              3.256               0.769               
H              12.793              4.189               2.831               
H              11.568              4.617               1.84                
H              10.207              2.981               2.846               
H              11.428              2.614               3.866               
H              11.362              4.888               4.598               
H              9.976               5.043               3.748               
H              10.024              2.869               5.586               
H              8.965               6.2                 5.045               
H              7.868               6.169               6.384               
H              8.546               2.846               7.25                
H              7.629               4.264               7.635               
N              14.317              1.727               2.346               
C              15.017              0.684               3.098               
C              14.761              0.914               4.591               
O              15.06               1.99                5.107               
C              16.519              0.698               2.777               
C              16.752              0.45                1.278               
C              17.269              -0.317              3.635               
C              16.336              -0.912              0.769               
H              14.779              2.601               2.025               
H              14.575              -0.175              2.865               
H              16.874              1.601               2.995               
H              16.254              1.157               0.764               
H              17.734              0.577               1.093               
H              18.247              -0.248              3.451               
H              17.096              -0.128              4.599               
H              16.952              -1.237              3.413               
H              15.358              -1.041              0.927               
H              16.527              -0.973              -0.21               
H              16.849              -1.618              1.255               
N              14.177              -0.078              5.287               
C              13.817              0.143               6.694               
C              14.963              0.653               7.558               
O              16.1                0.194               7.433               
C              13.379              -1.241              7.165               
C              12.883              -1.91               5.929               
C              13.761              -1.413              4.822               
H              13.014              0.771               6.758               
H              14.153              -1.743              7.56                
H              12.652              -1.169              7.852               
H              12.948              -2.911              6.019               
H              11.92               -1.669              5.761               
H              14.56               -2.002              4.691               
H              13.26               -1.342              3.956               
N              14.644              1.598               8.435               
C              15.618              2.176               9.346               
C              16.618              3.128               8.72                
O              17.593              3.494               9.368               
H              13.64               1.886               8.412               
H              15.119              2.665               10.101              
H              16.129              1.416               9.814               
N              16.383              3.542               7.476               
C              17.297              4.424               6.752               
C              16.569              5.524               5.991               
O              15.338              5.537               5.912               
C              18.131              3.664               5.684               
O              17.345              3.463               4.493               
C              18.638              2.335               6.215               
H              15.493              3.184               7.064               
H              17.918              4.86                7.424               
H              18.94               4.234               5.438               
H              18.439              1.605               5.556               
H              19.629              2.381               6.362               
H              18.188              2.121               7.086               
H              16.52               2.933               4.709               
N              17.404              6.329               5.328               
C              17.012              7.328               4.353               
C              17.124              6.89                2.876               
O              16.909              7.721               1.996               
C              17.882              8.571               4.537               
O              19.245              8.258               4.312               
H              18.424              6.165               5.59                
H              16.032              7.57                4.519               
H              17.596              9.263               3.885               
H              17.775              8.903               5.467               
H              19.387              7.277               4.435               
N              17.478              5.641               2.572               
C              17.398              5.205               1.175               
C              15.907              5.184               0.8                 
O              15.14               4.434               1.397               
C              18.074              3.84                0.962               
C              19.589              3.889               1.158               
C              20.207              2.508               1.251               
N              19.94               1.73                0.057               
C              20.036              0.414               -0.01               
N              20.39               -0.299              1.046               
N              19.747              -0.179              -1.144              
H              17.787              5.058               3.345               
H              17.858              5.866               0.601               
H              17.699              3.203               1.619               
H              17.893              3.546               0.035               
H              20.004              4.369               0.385               
H              19.794              4.382               2.004               
H              21.19               2.616               1.366               
H              19.816              2.048               2.043               
H              19.663              2.225               -0.778              
H              20.573              0.144               1.923               
H              20.476              -1.298              0.971               
H              19.44               0.341               -1.943              
H              19.832              -1.183              -1.224              
N              15.5                6.027               -0.159              
C              14.136              6.038               -0.654              
C              13.311              7.047               0.155               
C              11.843              7.131               -0.228              
C              11.011              7.927               0.765               
H              16.247              6.665               -0.51               
H              13.773              5.107               -0.587              
H              13.367              6.797               1.128               
H              13.718              7.96                0.036               
H              11.769              7.569               -1.126              
H              11.471              6.203               -0.282              
O              11.258              7.897               1.972               
N              9.999               8.626               0.261               
H              9.391               9.171               0.865               
H              9.842               8.607               -0.745              
H              7.07116             1.11852             -7.73759            
H              14.1403             6.32309             -1.70174            
