243
1.xyz
C              -3.237              7.35                17.123              
C              -1.865              7.837               17.64               
O              -1.632              9.042               17.691              
C              -4.374              7.777               18.069              
C              -5.788              7.515               17.534              
C              -6.816              7.942               18.553              
C              -6.072              8.21                16.219              
H              -3.433              7.842               16.258              
H              -4.275              7.267               18.911              
H              -4.289              8.749               18.225              
H              -5.883              6.539               17.346              
H              -6.718              8.921               18.747              
H              -7.738              7.769               18.2                
H              -6.689              7.425               19.403              
H              -5.426              7.893               15.522              
H              -7.006              8.002               15.921              
H              -5.975              9.201               16.332              
N              -0.985              6.905               18.012              
C              0.386               7.234               18.442              
C              1.35                7.376               17.254              
O              2.417               7.992               17.386              
C              0.948               6.134               19.35               
C              0.339               5.978               20.725              
C              1.294               5.183               21.615              
C              1.822               3.904               20.953              
N              2.436               2.93                21.906              
H              -1.345              5.929               17.974              
H              0.364               8.11                18.944              
H              0.852               5.252               18.858              
H              1.943               6.306               19.46               
H              0.199               6.873               21.13               
H              -0.517              5.483               20.656              
H              2.077               5.763               21.845              
H              0.814               4.925               22.454              
H              1.056               3.454               20.47               
H              2.511               4.163               20.259              
H              3.225               3.355               22.347              
H              1.761               2.676               22.596              
H              2.727               2.118               21.403              
N              1.02                6.753               16.128              
C              1.924               6.696               14.965              
C              1.885               7.972               14.139              
O              0.851               8.611               14.009              
C              1.618               5.461               14.124              
C              1.891               4.157               14.857              
C              1.375               2.91                14.151              
O              0.831               3.007               13.044              
O              1.501               1.802               14.716              
H              0.078               6.311               16.132              
H              2.868               6.529               15.289              
H              0.664               5.48                13.897              
H              2.196               5.484               13.333              
H              2.871               4.056               14.955              
H              1.448               4.198               15.742              
N              3.03                8.326               13.566              
C              3.171               9.479               12.679              
C              3.223               9.013               11.212              
O              4.161               8.327               10.827              
C              4.473               10.214              13.035              
C              4.776               11.528              12.321              
C              3.761               12.624              12.594              
C              6.175               11.974              12.703              
H              3.839               7.698               13.807              
H              2.372               10.072              12.789              
H              4.449               10.407              14.021              
H              5.234               9.587               12.846              
H              4.816               11.354              11.322              
H              3.734               12.821              13.575              
H              4.02                13.453              12.097              
H              2.855               12.326              12.291              
H              6.838               11.276              12.427              
H              6.391               12.837              12.243              
H              6.228               12.106              13.694              
N              2.2                 9.336               10.402              
C              2.251               8.977               8.99                
C              3.412               9.644               8.284               
O              3.721               10.797              8.591               
C              0.939               9.53                8.417               
C              0.099               9.911               9.564               
C              1.012               10.135              10.73               
H              2.291               7.972               8.878               
H              1.13                10.326              7.818               
H              0.486               8.827               7.843               
H              -0.431              10.754              9.36                
H              -0.576              9.181               9.775               
H              1.255               11.103              10.827              
H              0.599               9.816               11.588              
N              4.026               8.931               7.343               
C              5.036               9.575               6.528               
C              4.91                9.205               5.066               
O              4.359               8.16                4.683               
C              6.435               9.281               7.028               
C              6.695               9.512               8.504               
C              8.028               8.877               8.863               
C              6.694               10.996              8.796               
H              3.736               7.957               7.258               
H              4.929               10.579              6.614               
H              6.635               8.318               6.837               
H              7.073               9.859               6.518               
H              5.973               9.087               9.037               
H              8.756               9.295               8.319               
H              8.217               9.02                9.835               
H              7.994               7.895               8.672               
H              5.805               11.389              8.553               
H              6.866               11.15               9.771               
H              7.411               11.448              8.261               
N              5.378               10.146              4.252               
C              5.459               9.997               2.799               
C              6.939               9.864               2.46                
O              7.802               10.544              3.041               
C              4.859               11.21               2.083               
C              3.355               11.303              2.223               
C              2.741               12.452              1.446               
H              5.69                11.021              4.747               
H              5.011               9.151               2.55                
H              5.263               12.039              2.467               
H              5.082               11.149              1.11                
H              2.946               10.446              1.896               
H              3.127               11.419              3.195               
O              3.432               13.271              0.851               
N              1.426               12.497              1.43                
H              0.932               13.25               0.938               
H              0.894               11.774              1.911               
N              7.231               8.982               1.516               
C              8.588               8.826               1.004               
C              9.149               10.206              0.65                
O              8.492               10.995              -0.037              
C              8.551               7.939               -0.237              
C              9.911               7.63                -0.842              
C              9.717               6.797               -2.097              
C              11.04               6.422               -2.731              
N              10.793              5.584               -3.94               
H              6.425               8.42                1.177               
H              9.162               8.421               1.714               
H              8.114               7.072               0.011               
H              7.995               8.398               -0.933              
H              10.361              8.479               -1.083              
H              10.449              7.114               -0.19               
H              9.23                5.961               -1.856              
H              9.186               7.324               -2.755              
H              11.522              7.249               -3                  
H              11.582              5.902               -2.079              
H              10.774              6.17                -4.749              
H              11.525              4.91                -4.03               
H              9.916               5.116               -3.843              
N              10.354              10.496              1.138               
C              11.002              11.78               0.904               
C              10.863              12.798              2.019               
O              11.578              13.798              2.03                
H              10.788              9.73                1.697               
H              12.001              11.619              0.721               
H              10.632              12.184              0.034               
N              9.922               12.578              2.951               
C              9.743               13.495              4.072               
C              10.991              13.556              4.96                
O              11.587              12.53               5.254               
C              8.576               13.053              4.957               
C              7.207               13.353              4.357               
O              7.104               14.103              3.359               
O              6.235               12.811              4.921               
H              9.357               11.727              2.804               
H              9.614               14.418              3.687               
H              8.651               12.069              5.098               
H              8.651               13.529              5.828               
N              11.322              14.754              5.414               
C              12.383              14.935              6.394               
C              11.726              15.029              7.771               
O              10.79               15.809              7.961               
C              13.213              16.2                6.091               
C              13.994              16.034              4.777               
C              14.153              16.513              7.246               
C              14.538              17.337              4.243               
H              10.769              15.541              5.018               
H              12.916              14.098              6.393               
H              12.584              16.961              5.978               
H              14.748              15.405              4.94                
H              13.379              15.638              4.101               
H              14.644              17.361              7.056               
H              13.625              16.616              8.087               
H              14.808              15.767              7.355               
H              15.159              17.739              4.915               
H              15.034              17.167              3.392               
H              13.782              17.967              4.068               
N              12.214              14.232              8.725               
C              11.654              14.155              10.066              
C              12.794              14.261              11.048              
O              13.967              14.134              10.658              
C              10.86               12.852              10.284              
C              9.724               12.746              9.27                
C              11.743              11.627              10.225              
H              13.042              13.663              8.419               
H              11.051              14.938              10.197              
H              10.441              12.899              11.184              
H              10.101              12.779              8.345               
H              9.24                11.882              9.403               
H              9.09                13.508              9.401               
H              12.29               11.567              11.062              
H              11.174              10.807              10.141              
H              12.353              11.691              9.433               
N              12.474              14.512              12.309              
C              13.469              14.762              13.345              
C              13.206              13.85               14.53               
O              12.102              13.821              15.069              
C              13.465              16.242              13.744              
C              13.851              17.104              12.585              
C              15.199              17.391              12.339              
C              12.901              17.573              11.685              
C              15.578              18.143              11.247              
C              13.286              18.322              10.572              
C              14.627              18.614              10.368              
O              15.031              19.355              9.279               
H              11.443              14.516              12.5                
H              14.373              14.543              12.974              
H              12.553              16.48               14.031              
H              14.122              16.366              14.468              
H              15.895              17.043              12.97               
H              11.938              17.374              11.831              
H              16.552              18.348              11.09               
H              12.597              18.646              9.926               
H              14.611              18.981              8.455               
N              14.222              13.102              14.943              
C              14.073              12.058              15.942              
C              14.532              12.531              17.319              
O              15.635              13.06               17.457              
C              14.866              10.791              15.537              
C              14.303              10.185              14.235              
C              14.867              9.745               16.634              
C              15.255              9.255               13.509              
H              15.137              13.33               14.487              
H              13.086              11.874              16.018              
H              15.807              11.061              15.366              
H              13.467              9.685               14.461              
H              14.062              10.941              13.624              
H              15.436              8.97                16.36               
H              15.232              10.141              17.476              
H              13.933              9.427               16.797              
H              15.491              8.491               14.108              
H              14.813              8.91                12.683              
H              16.083              9.757               13.263              
N              13.715              12.283              18.338              
H              12.798              11.863              18.06               
H              -3.2683             6.30475             16.9352             
H              13.962              12.4842             19.2949             
