366
1.xyz
C              -15.157             -2.39               -7.916              
C              -15.18              -0.91               -7.541              
O              -15.502             -0.052              -8.373              
C              -13.725             -2.859              -8.235              
C              -13.204             -2.236              -9.534              
C              -13.675             -4.39               -8.338              
C              -11.699             -2.486              -9.748              
H              -15.531             -2.886              -7.137              
H              -13.131             -2.56               -7.49               
H              -13.698             -2.626              -10.299             
H              -13.353             -1.256              -9.499              
H              -12.733             -4.677              -8.49               
H              -14.015             -4.786              -7.489              
H              -14.245             -4.685              -9.1                
H              -11.542             -3.467              -9.787              
H              -11.425             -2.059              -10.603             
H              -11.199             -2.086              -8.987              
N              -14.876             -0.612              -6.288              
C              -14.738             0.783               -5.869              
C              -13.35              0.997               -5.284              
O              -13.191             1.165               -4.07               
C              -15.843             1.144               -4.873              
C              -17.225             1.155               -5.538              
C              -18.338             1.37                -4.531              
C              -19.707             1.166               -5.179              
N              -19.952             2.083               -6.333              
H              -14.749             -1.415              -5.655              
H              -14.848             1.374               -6.669              
H              -15.852             0.468               -4.155              
H              -15.663             2.048               -4.519              
H              -17.248             1.893               -6.215              
H              -17.365             0.278               -6                  
H              -18.241             0.714               -3.793              
H              -18.291             2.299               -4.186              
H              -19.775             0.212               -5.497              
H              -20.42              1.317               -4.483              
H              -19.868             3.029               -6.025              
H              -19.278             1.9                 -7.047              
H              -20.872             1.925               -6.689              
N              -12.333             0.974               -6.153              
C              -10.944             0.894               -5.696              
C              -10.431             2.14                -4.983              
O              -10.809             3.271               -5.307              
C              -10.161             0.676               -6.993              
C              -11.006             1.302               -8.045              
C              -12.424             0.991               -7.625              
H              -10.813             0.067               -5.105              
H              -9.262              1.118               -6.94               
H              -10.032             -0.303              -7.167              
H              -10.857             2.292               -8.081              
H              -10.809             0.906               -8.943              
H              -13.057             1.699               -7.93               
H              -12.719             0.102               -7.97               
N              -9.543              1.908               -4.025              
C              -8.833              2.989               -3.349              
C              -7.467              3.143               -3.982              
O              -6.638              2.218               -3.954              
C              -8.744              2.741               -1.834              
C              -10.154             2.694               -1.242              
C              -7.927              3.839               -1.141              
C              -10.176             2.345               0.238               
H              -9.398              0.902               -3.8                
H              -9.341              3.824               -3.548              
H              -8.321              1.857               -1.692              
H              -10.582             3.585               -1.369              
H              -10.68              2.007               -1.738              
H              -7.872              3.64                -0.166              
H              -7.011              3.862               -1.533              
H              -8.375              4.718               -1.28               
H              -9.658              3.031               0.744               
H              -11.121             2.332               0.557               
H              -9.763              1.446               0.369               
N              -7.253              4.326               -4.558              
C              -6.066              4.654               -5.328              
C              -5.383              5.882               -4.747              
O              -6.009              6.661               -4.04               
C              -6.466              4.967               -6.776              
C              -7.252              3.847               -7.459              
C              -7.703              4.234               -8.882              
C              -6.367              2.638               -7.486              
H              -8.037              5.016               -4.402              
H              -5.425              3.881               -5.279              
H              -7.039              5.77                -6.766              
H              -5.641              5.113               -7.294              
H              -8.065              3.633               -6.91               
H              -6.897              4.434               -9.434              
H              -8.209              3.473               -9.28               
H              -8.287              5.04                -8.829              
H              -6.119              2.369               -6.55               
H              -6.842              1.871               -7.928              
H              -5.526              2.836               -7.999              
N              -4.103              6.053               -5.056              
C              -3.414              7.292               -4.711              
C              -3.18               8.11                -5.969              
O              -2.803              7.574               -7.004              
C              -2.075              7.024               -4.01               
C              -1.33               8.32                -3.654              
C              -0.047              8.074               -2.886              
H              -3.655              5.262               -5.543              
H              -4.012              7.82                -4.105              
H              -2.245              6.528               -3.167              
H              -1.493              6.494               -4.616              
H              -1.111              8.799               -4.504              
H              -1.937              8.887               -3.098              
O              0.732               7.185               -3.223              
N              0.186               8.878               -1.859              
H              1.021               8.766               -1.285              
H              -0.484              9.616               -1.647              
N              -3.408              9.413               -5.875              
C              -3.078              10.313              -6.964              
C              -1.571              10.538              -6.925              
O              -1.028              10.929              -5.889              
C              -3.779              11.67               -6.795              
C              -3.313              12.639              -7.864              
C              -5.3                11.497              -6.828              
H              -3.831              9.721               -4.98               
H              -3.299              9.866               -7.823              
H              -3.502              12.047              -5.917              
H              -2.366              12.434              -8.115              
H              -3.895              12.553              -8.673              
H              -3.367              13.576              -7.516              
H              -5.651              11.869              -7.685              
H              -5.518              10.525              -6.764              
H              -5.7                11.987              -6.056              
N              -0.895              10.267              -8.036              
C              0.533               10.532              -8.128              
C              0.729               11.88               -8.8                
O              1.557               12.688              -8.374              
C              1.278               9.436               -8.934              
C              1.117               8.065               -8.266              
C              2.74                9.815               -9.121              
C              1.619               8.009               -6.844              
H              -1.457              9.864               -8.805              
H              0.863               10.627              -7.192              
H              0.865               9.391               -9.837              
H              0.147               7.822               -8.281              
H              1.619               7.393               -8.813              
H              3.19                9.135               -9.697              
H              2.799               10.711              -9.558              
H              3.192               9.848               -8.231              
H              1.115               8.668               -6.287              
H              1.481               7.089               -6.478              
H              2.593               8.232               -6.825              
N              -0.041              12.135              -9.854              
C              0.079               13.412              -10.538             
C              -1.228              13.803              -11.196             
O              -2.062              12.938              -11.48              
C              1.213               13.346              -11.581             
C              1.612               14.713              -12.095             
H              -0.69               11.389              -10.123             
H              0.279               14.108              -9.837              
H              2.003               12.92               -11.151             
H              0.896               12.794              -12.346             
O              2.026               15.575              -11.324             
N              1.485               14.919              -13.403             
H              1.133               14.185              -13.988             
H              1.737               15.799              -13.8               
N              -1.418              15.105              -11.408             
C              -2.575              15.61               -12.154             
C              -2.082              16.691              -13.096             
O              -1.281              17.538              -12.714             
C              -3.646              16.25               -11.233             
C              -3.997              15.33               -10.063             
C              -4.906              16.595              -12.039             
C              -5.073              15.894              -9.132              
H              -0.687              15.723              -11.005             
H              -2.89               14.855              -12.718             
H              -3.262              17.092              -10.863             
H              -4.317              14.458              -10.426             
H              -3.171              15.171              -9.526              
H              -5.559              17.057              -11.444             
H              -4.657              17.194              -12.795             
H              -5.308              15.755              -12.393             
H              -5.907              16.044              -9.656              
H              -5.243              15.239              -8.401              
H              -4.75               16.755              -8.75               
N              -2.543              16.662              -14.333             
C              -2.115              17.672              -15.287             
C              -3.313              18.023              -16.152             
O              -4.136              17.157              -16.468             
C              -0.954              17.138              -16.137             
C              -1.392              16.478              -17.441             
C              -0.824              15.076              -17.639             
N              0.362               15.074              -18.492             
C              0.334               15.038              -19.823             
N              1.469               15.044              -20.506             
N              -0.821              15.003              -20.476             
H              -3.198              15.901              -14.551             
H              -1.825              18.486              -14.793             
H              -0.358              17.901              -16.363             
H              -0.461              16.462              -15.6               
H              -2.394              16.411              -17.458             
H              -1.093              17.044              -18.215             
H              -0.587              14.711              -16.742             
H              -1.534              14.514              -18.058             
H              1.264               15.102              -18.043             
H              2.353               15.055              -20.048             
H              1.44                15.036              -21.516             
H              -1.678              14.984              -19.95              
H              -0.841              14.994              -21.469             
N              -3.443              19.307              -16.506             
C              -4.471              19.682              -17.471             
C              -4.063              19.133              -18.823             
O              -2.867              18.968              -19.082             
C              -4.383              21.216              -17.516             
C              -3.466              21.618              -16.427             
C              -2.612              20.45               -16.096             
H              -5.364              19.338              -17.197             
H              -4.036              21.518              -18.418             
H              -5.302              21.621              -17.392             
H              -2.898              22.414              -16.717             
H              -3.997              21.924              -15.612             
H              -1.752              20.456              -16.609             
H              -2.409              20.399              -15.116             
N              -5.034              18.83               -19.671             
C              -4.713              18.502              -21.053             
C              -5.229              19.635              -21.925             
O              -6.154              20.356              -21.539             
C              -5.341              17.179              -21.503             
C              -6.861              17.276              -21.456             
C              -4.848              16.03               -20.645             
C              -7.546              15.976              -21.752             
H              -5.986              18.846              -19.287             
H              -3.722              18.516              -21.123             
H              -5.071              17.014              -22.446             
H              -7.129              17.591              -20.547             
H              -7.15               17.957              -22.128             
H              -5.234              15.171              -20.979             
H              -3.851              15.982              -20.688             
H              -5.131              16.173              -19.697             
H              -7.269              15.287              -21.08              
H              -8.539              16.099              -21.707             
H              -7.294              15.662              -22.669             
N              -4.629              19.802              -23.097             
C              -5.008              20.906              -23.968             
C              -6.382              20.673              -24.598             
O              -6.598              19.694              -25.318             
C              -3.943              21.146              -25.037             
O              -3.829              19.985              -25.871             
C              -2.613              21.393              -24.365             
H              -3.901              19.11               -23.326             
H              -5.055              21.75               -23.417             
H              -4.231              21.93               -25.626             
H              -2.578              22.329              -24.002             
H              -2.483              20.746              -23.607             
H              -1.865              21.273              -25.025             
H              -3.185              19.327              -25.467             
N              -7.312              21.575              -24.308             
C              -8.679              21.437              -24.788             
C              -9.093              22.628              -25.636             
O              -9.657              22.456              -26.714             
C              -9.666              21.266              -23.624             
O              -9.399              22.255              -22.62              
C              -9.516              19.883              -23.018             
H              -6.986              22.367              -23.723             
H              -8.736              20.606              -25.359             
H              -10.614             21.414              -23.97              
H              -9.818              19.187              -23.674             
H              -8.555              19.715              -22.783             
H              -10.073             19.812              -22.187             
H              -10.149             22.285              -21.952             
N              -8.815              23.833              -25.144             
C              -9.096              25.049              -25.888             
C              -10.57              25.347              -26.103             
O              -11.23              24.689              -26.903             
H              -8.386              23.825              -24.196             
H              -8.663              25.844              -25.406             
H              -8.631              24.998              -26.801             
N              -11.073             26.343              -25.375             
C              -12.45              26.838              -25.488             
C              -13.497             25.93               -24.846             
O              -14.587             26.38               -24.49              
C              -12.81              27.193              -26.935             
C              -11.782             28.109              -27.577             
H              -10.383             26.758              -24.693             
H              -12.485             27.726              -24.993             
H              -12.859             26.351              -27.462             
H              -13.691             27.654              -26.935             
O              -11.003             28.771              -26.887             
N              -11.77              28.147              -28.902             
H              -12.422             27.593              -29.424             
H              -11.113             28.727              -29.383             
N              -13.158             24.655              -24.699             
C              -13.933             23.745              -23.87              
C              -13.385             23.907              -22.462             
O              -12.257             24.381              -22.294             
C              -13.733             22.302              -24.335             
O              -14.061             22.159              -25.707             
H              -12.304             24.369              -25.22              
H              -14.874             24.046              -23.87              
H              -12.779             22.051              -24.202             
H              -14.323             21.707              -23.797             
H              -13.432             22.705              -26.258             
N              -14.179             23.541              -21.441             
C              -13.661             23.568              -20.068             
C              -12.425             22.686              -19.941             
O              -12.303             21.715              -20.697             
C              -14.82              22.985              -19.237             
C              -15.757             22.354              -20.23              
C              -15.598             23.153              -21.484             
H              -13.46              24.511              -19.782             
H              -14.476             22.3                -18.586             
H              -15.284             23.712              -18.721             
H              -15.509             21.392              -20.377             
H              -16.701             22.395              -19.889             
H              -15.786             22.606              -22.298             
H              -16.183             23.964              -21.483             
N              -11.523             23.009              -18.999             
C              -10.31              22.203              -18.872             
C              -10.652             20.762              -18.565             
O              -11.698             20.483              -17.974             
C              -9.583              22.838              -17.681             
C              -10.632             23.572              -16.939             
C              -11.59              24.062              -17.971             
H              -9.748              22.272              -19.706             
H              -9.161              22.126              -17.109             
H              -8.859              23.458              -18.003             
H              -11.093             22.963              -16.278             
H              -10.231             24.342              -16.424             
H              -12.519             24.138              -17.611             
H              -11.307             24.942              -18.354             
N              -9.796              19.854              -19.014             
C              -9.893              18.464              -18.634             
C              -8.616              18.073              -17.912             
O              -7.522              18.515              -18.279             
C              -10.107             17.589              -19.864             
C              -11.347             17.957              -20.674             
C              -11.971             16.704              -21.247             
N              -12.376             15.814              -20.166             
C              -13.63              15.453              -19.937             
N              -14.593             15.886              -20.743             
N              -13.917             14.646              -18.92              
H              -9.063              20.229              -19.653             
H              -10.664             18.345              -18.009             
H              -9.315              17.682              -20.459             
H              -10.206             16.645              -19.567             
H              -12.007             18.396              -20.082             
H              -11.086             18.549              -21.422             
H              -12.766             16.964              -21.774             
H              -11.297             16.251              -21.812             
H              -11.661             15.453              -19.559             
H              -14.397             16.46               -21.53              
H              -15.551             15.624              -20.553             
H              -13.174             14.299              -18.342             
H              -14.861             14.387              -18.734             
N              -8.757              17.262              -16.87              
C              -7.601              16.844              -16.09              
C              -7.801              17.133              -14.601             
C              -7.962              18.601              -14.328             
C              -6.859              19.446              -14.302             
C              -9.217              19.153              -14.137             
C              -7.005              20.801              -14.072             
C              -9.374              20.509              -13.91              
C              -8.265              21.321              -13.876             
O              -8.423              22.662              -13.64              
H              -9.726              16.965              -16.67              
H              -6.802              17.378              -16.397             
H              -8.619              16.663              -14.301             
H              -7.004              16.806              -14.112             
H              -5.943              19.067              -14.452             
H              -10.024             18.563              -14.164             
H              -6.201              21.399              -14.05              
H              -10.288             20.893              -13.772             
H              -9.39               22.858              -13.482             
H              -7.38054            15.7855             -16.2415            
H              -15.8267            -2.54795            -8.72323            
