361
0.xyz
N              20.155              26.506              83.292              
C              18.804              26.403              82.638              
C              17.586              26.563              83.573              
O              16.493              26.902              83.097              
C              18.689              25.083              81.863              
O              19.028              23.994              82.694              
H              20.028              26.652              84.268              
H              18.758              27.142              81.936              
H              17.752              24.979              81.551              
H              19.313              25.114              81.091              
H              20.652              25.659              83.134              
H              20.647              27.272              82.892              
H              18.606              24.113              83.593              
N              17.744              26.312              84.865              
C              16.621              26.467              85.779              
C              16.531              27.932              86.207              
O              17.465              28.695              85.99               
C              16.78               25.519              86.96               
C              16.754              24.053              86.54               
S              15.44               23.678              85.353              
C              16.343              23.437              83.828              
H              18.685              26.013              85.15               
H              15.781              26.238              85.291              
H              17.654              25.701              87.415              
H              16.033              25.673              87.611              
H              17.673              23.811              86.151              
H              16.655              23.475              87.383              
H              15.818              22.844              83.215              
H              16.495              24.321              83.383              
H              17.227              23.01               84.024              
N              15.396              28.333              86.769              
C              15.178              29.732              87.154              
C              15.789              30.006              88.51               
O              15.697              29.169              89.39               
C              13.692              30.1                87.188              
C              13.067              30.101              85.812              
H              14.689              27.588              86.911              
H              15.667              30.298              86.483              
H              13.218              29.433              87.755              
H              13.605              31.011              87.581              
O              13.624              30.642              84.865              
N              11.904              29.481              85.701              
H              11.48               29.05               86.499              
H              11.438              29.44               84.813              
N              16.408              31.184              88.686              
C              16.899              31.58               90.002              
C              15.772              32.046              90.934              
O              14.62               32.195              90.495              
C              17.823              32.757              89.684              
C              17.236              33.375              88.454              
C              16.645              32.229              87.672              
H              17.422              30.827              90.434              
H              17.835              33.413              90.443              
H              18.758              32.438              89.513              
H              16.527              34.043              88.699              
H              17.948              33.842              87.921              
H              15.783              32.493              87.232              
H              17.281              31.899              86.969              
N              16.094              32.279              92.222              
C              15.119              32.955              93.076              
C              14.836              34.32               92.467              
O              15.738              34.892              91.867              
C              15.85               33.109              94.419              
C              16.919              32.092              94.404              
C              17.29               31.86               92.967              
H              14.286              32.421              93.162              
H              16.228              34.04               94.504              
H              15.209              32.96               95.183              
H              17.726              32.409              94.932              
H              16.601              31.229              94.833              
H              18.083              32.412              92.699              
H              17.493              30.893              92.792              
N              13.597              34.823              92.603              
C              13.309              36.136              92.04               
C              14.036              37.233              92.825              
O              14.526              36.988              93.92               
C              11.781              36.265              92.175              
C              11.386              35.288              93.232              
C              12.403              34.185              93.199              
H              13.558              36.176              91.067              
H              11.531              37.204              92.439              
H              11.333              36.052              91.3                
H              11.37               35.736              94.138              
H              10.459              34.928              93.05               
H              12.612              33.848              94.119              
H              12.098              33.418              92.63               
N              14.117              38.442              92.266              
C              14.721              39.479              93.077              
C              13.876              39.771              94.317              
O              12.66               39.596              94.317              
C              14.78               40.692              92.134              
C              14.55               40.15               90.756              
C              13.675              38.948              90.959              
H              15.663              39.233              93.343              
H              14.07               41.363              92.378              
H              15.677              41.144              92.197              
H              14.095              40.835              90.182              
H              15.421              39.894              90.332              
H              12.709              39.198              90.987              
H              13.823              38.262              90.247              
N              14.556              40.217              95.357              
C              13.97               40.557              96.642              
C              12.984              41.702              96.477              
O              13.302              42.675              95.817              
C              15.135              40.993              97.534              
C              14.798              41.341              98.945              
C              16.056              41.542              99.761              
O              16.598              40.543              100.254             
O              16.503              42.697              99.898              
H              15.597              40.31               95.172              
H              13.495              39.758              97.023              
H              15.789              40.24               97.547              
H              15.547              41.793              97.106              
H              14.304              42.185              98.957              
H              14.304              40.6                99.349              
N              11.785              41.567              97.044              
C              10.807              42.667              97.121              
C              10.454              43.068              98.57               
O              9.747               44.065              98.815              
C              9.51                42.301              96.387              
O              8.99                41.08               96.92               
C              9.763               42.134              94.895              
H              11.594              40.616              97.43               
H              11.204              43.477              96.662              
H              8.821               43.037              96.546              
H              9.233               42.813              94.383              
H              10.738              42.262              94.699              
H              9.487               41.215              94.605              
H              9.336               40.928              97.852              
N              10.957              42.291              99.52               
C              10.69               42.506              100.932             
C              11.987              42.317              101.708             
O              12.722              41.372              101.453             
C              9.619               41.507              101.402             
O              9.579               41.398              102.807             
H              11.56               41.513              99.165              
H              10.393              43.451              101.056             
H              8.73                41.819              101.07              
H              9.828               40.613              101.008             
H              9.921               42.243              103.22              
N              12.262              43.219              102.65              
C              13.475              43.165              103.478             
C              13.269              44.065              104.696             
O              13.59               45.254              104.654             
C              14.698              43.623              102.676             
C              16.011              43.376              103.402             
H              11.542              43.97               102.752             
H              13.56               42.232              103.814             
H              14.714              43.123              101.814             
H              14.611              44.601              102.502             
O              16.058              43.226              104.621             
N              17.097              43.333              102.635             
H              17.024              43.465              101.648             
H              17.994              43.168              103.05              
N              12.735              43.505              105.785             
C              12.312              44.356              106.904             
C              13.404              45.193              107.568             
O              13.11               46.271              108.065             
C              11.72               43.357              107.901             
C              11.267              42.215              107.046             
C              12.315              42.107              105.974             
H              11.532              44.962              106.609             
H              12.414              43.058              108.558             
H              10.95               43.762              108.394             
H              11.216              41.372              107.584             
H              10.367              42.409              106.651             
H              13.086              41.546              106.27              
H              11.936              41.736              105.127             
N              14.646              44.718              107.584             
C              15.727              45.495              108.18              
C              16.277              46.585              107.275             
O              17.039              47.439              107.745             
C              16.859              44.584              108.666             
C              16.605              44.04               110.065             
H              14.771              43.79               107.155             
H              15.342              45.957              109.002             
H              16.938              43.817              108.038             
H              17.703              45.11               108.68              
O              15.693              44.494              110.765             
N              17.408              43.067              110.478             
H              18.138              42.735              109.877             
H              17.288              42.666              111.384             
N              15.899              46.58               105.998             
C              16.285              47.671              105.107             
C              15.409              48.877              105.458             
O              14.182              48.761              105.462             
C              16.078              47.264              103.648             
C              16.582              48.247              102.609             
C              16.212              47.765              101.208             
C              16.786              48.672              100.123             
N              16.096              49.989              100.065             
H              15.333              45.771              105.707             
H              17.234              47.908              105.272             
H              16.545              46.384              103.502             
H              15.091              47.128              103.501             
H              16.161              49.134              102.763             
H              17.571              48.317              102.672             
H              16.576              46.848              101.078             
H              15.221              47.758              101.122             
H              17.763              48.818              100.309             
H              16.694              48.211              99.235              
H              16.269              50.415              99.177              
H              15.113              49.854              100.186             
H              16.445              50.579              100.793             
N              16.034              50.03               105.78              
C              15.239              51.21               106.104             
C              14.504              51.712              104.86              
O              14.979              51.53               103.739             
C              16.29               52.221              106.595             
C              17.538              51.827              105.881             
C              17.479              50.322              105.799             
H              14.59               51.016              106.844             
H              16.015              53.154              106.356             
H              16.403              52.154              107.587             
H              17.565              52.232              104.964             
H              18.348              52.124              106.393             
H              17.916              49.985              104.964             
H              17.914              49.896              106.595             
N              13.341              52.319              105.068             
C              12.466              52.706              103.968             
C              12.063              54.15               104.093             
O              12.035              54.706              105.19              
C              11.181              51.87               103.95              
C              11.362              50.39               104.204             
C              12.27               49.718              103.195             
C              11.903              48.236              103.042             
N              12.061              47.423              104.296             
H              13.113              52.491              106.068             
H              12.962              52.575              103.1               
H              10.563              52.24               104.651             
H              10.75               51.988              103.049             
H              11.751              50.26               105.126             
H              10.46               49.939              104.179             
H              12.162              50.156              102.314             
H              13.208              49.774              103.508             
H              10.942              48.173              102.732             
H              12.484              47.833              102.318             
H              12.164              48.041              105.072             
H              11.251              46.855              104.419             
H              12.87               46.847              104.209             
N              11.719              54.723              102.946             
C              11.167              56.063              102.853             
C              10.046              56.115              101.844             
O              10.051              55.396              100.844             
C              12.237              57.037              102.39              
C              13.09               57.555              103.502             
C              13.746              58.86               103.13              
N              14.48               58.819              101.876             
C              15.21               59.839              101.433             
N              15.29               60.958              102.156             
N              15.854              59.747              100.272             
H              11.883              54.116              102.102             
H              10.805              56.329              103.757             
H              12.821              56.566              101.733             
H              11.784              57.809              101.95              
H              12.531              57.709              104.317             
H              13.812              56.895              103.714             
H              13.029              59.565              103.068             
H              14.378              59.115              103.873             
H              14.436              57.99               101.321             
H              14.83               61.039              103.032             
H              15.829              61.733              101.804             
H              15.798              58.894              99.746              
H              16.386              60.515              99.93               
N              9.085               56.98               102.1               
C              8.103               57.313              101.091             
C              8.328               58.771              100.728             
O              8.029               59.667              101.52              
C              6.674               57.081              101.607             
C              5.599               57.31               100.561             
C              5.861               56.538              99.283              
H              9.095               57.385              103.053             
H              8.284               56.766              100.283             
H              6.603               56.137              101.93              
H              6.507               57.706              102.372             
H              4.719               57.018              100.934             
H              5.564               58.285              100.343             
O              5.254               55.488              99.064              
N              6.773               57.043              98.434              
H              7.001               56.572              97.578              
H              7.226               57.922              98.686              
N              8.894               59.002              99.549              
C              9.186               60.356              99.102              
C              8.359               60.735              97.889              
O              7.856               59.87               97.174              
C              10.682              60.528              98.797              
O              11.033              59.843              97.584              
C              11.509              59.985              99.956              
H              9.104               58.154              98.99               
H              8.963               60.995              99.853              
H              10.881              61.524              98.666              
H              10.906              59.75               100.722             
H              12.005              59.165              99.664              
H              12.168              60.678              100.256             
H              11.212              58.872              97.772              
N              8.226               62.036              97.668              
C              7.45                62.543              96.544              
C              8.005               62.051              95.203              
O              7.24                61.712              94.319              
C              7.302               64.068              96.607              
C              8.575               64.799              96.238              
H              8.713               62.648              98.351              
H              6.518               62.167              96.628              
H              6.582               64.338              95.972              
H              7.047               64.318              97.538              
O              9.563               64.735              96.959              
N              8.552               65.506              95.11               
H              7.714               65.535              94.562              
H              9.363               66.004              94.813              
N              9.33                61.956              95.076              
C              9.936               61.36               93.885              
C              9.554               59.883              93.747              
O              9.229               59.424              92.652              
C              11.467              61.526              93.878              
C              11.911              62.985              93.855              
C              13.403              63.173              93.639              
H              9.874               62.33               95.871              
H              9.578               61.844              93.079              
H              11.837              61.1                94.699              
H              11.832              61.076              93.066              
H              11.421              63.456              93.115              
H              11.659              63.409              94.73               
O              14.221              62.318              94.007              
N              13.77               64.309              93.058              
H              14.755              64.514              92.892              
H              13.053              64.975              92.779              
N              9.582               59.14               94.847              
C              9.188               57.727              94.803              
C              7.693               57.585              94.501              
O              7.298               56.666              93.786              
C              9.545               56.993              96.1                
C              10.997              56.518              96.304              
C              11.146              56.003              97.73               
C              11.433              55.458              95.304              
H              9.892               59.621              95.702              
H              9.703               57.275              94.069              
H              9.328               57.605              96.868              
H              8.96                56.179              96.163              
H              11.607              57.285              96.16               
H              10.515              55.241              97.877              
H              12.085              55.691              97.876              
H              10.935              56.739              98.374              
H              11.366              55.826              94.376              
H              12.38               55.193              95.489              
H              10.841              54.655              95.387              
N              6.878               58.495              95.017              
C              5.448               58.52               94.697              
C              4.703               59.586              95.517              
C              4.621               59.248              97                  
C              4.513               60.451              97.917              
O              4.105               60.344              99.077              
N              4.874               61.616              97.397              
H              7.329               59.177              95.656              
H              5.069               57.616              94.912              
H              5.182               60.454              95.421              
H              3.774               59.668              95.164              
H              3.816               58.66               97.149              
H              5.444               58.725              97.254              
H              4.816               62.473              97.947              
H              5.212               61.646              96.438              
H              5.30222             58.7017             93.6292             
