356
4.xyz
C              13.021              42.381              25.66               
C              13.776              41.092              25.566              
O              14.975              41.061              25.912              
C              13.152              42.934              27.067              
C              13.114              44.433              27.073              
H              13.435              43.035              24.991              
H              12.396              42.59               27.614              
H              14.02               42.631              27.446              
O              14.15               45.081              26.886              
N              11.934              44.999              27.257              
H              11.12               44.428              27.39               
H              11.846              45.995              27.265              
N              13.115              40.028              25.116              
C              13.715              38.705              25.004              
C              14.257              38.203              26.359              
O              15.254              37.468              26.439              
C              14.825              38.684              23.929              
C              14.359              39.162              22.569              
C              15.431              38.96               21.503              
N              15.689              37.542              21.292              
C              16.591              37.055              20.441              
N              17.338              37.878              19.703              
N              16.747              35.735              20.333              
H              12.12               40.226              24.848              
H              13.016              38.051              24.685              
H              15.558              39.278              24.238              
H              15.145              37.749              23.842              
H              13.549              38.65               22.292              
H              14.147              40.136              22.61               
H              15.106              39.368              20.66               
H              16.26               39.406              21.815              
H              15.147              36.879              21.827              
H              17.245              38.865              19.793              
H              18                  37.496              19.052              
H              16.2                35.123              20.905              
H              17.407              35.362              19.685              
N              13.563              38.598              27.421              
C              13.884              38.119              28.761              
C              13.596              36.614              28.897              
O              14.414              35.857              29.431              
C              13.101              38.997              29.766              
C              13.577              38.891              31.194              
O              13.876              37.783              31.66               
O              13.539              39.956              31.887              
H              12.792              39.261              27.219              
H              14.874              38.237              28.894              
H              13.188              39.946              29.462              
H              12.142              38.719              29.719              
N              12.432              36.148              28.437              
C              12.121              34.719              28.546              
C              12.971              33.863              27.631              
O              12.974              34.08               26.412              
C              10.664              34.467              28.168              
C              9.688               35.2                29.062              
C              9.701               34.997              30.429              
C              8.773               36.107              28.545              
C              8.826               35.671              31.255              
C              7.871               36.77               29.358              
C              7.891               36.559              30.718              
O              7.031               37.236              31.562              
H              11.807              36.844              28.022              
H              12.297              34.435              29.504              
H              10.523              34.776              27.235              
H              10.483              33.493              28.245              
H              10.356              34.349              30.829              
H              8.767               36.286              27.558              
H              8.855               35.529              32.251              
H              7.204               37.403              28.956              
H              7.264               37.017              32.507              
N              13.65               32.87               28.198              
C              14.514              32.027              27.391              
C              13.797              30.778              26.88               
O              14.313              30.144              25.984              
C              15.746              31.658              28.19               
C              16.684              32.836              28.336              
C              18.063              32.419              28.773              
N              18.781              31.697              27.723              
C              19.408              30.523              27.868              
N              19.481              29.896              29.04               
N              20.019              29.983              26.83               
H              13.512              32.761              29.211              
H              14.837              32.558              26.591              
H              15.465              31.374              29.093              
H              16.227              30.938              27.716              
H              16.761              33.31               27.456              
H              16.316              33.471              29.019              
H              18.58               33.238              29.015              
H              17.975              31.827              29.573              
H              18.809              32.121              26.8                
H              19.036              30.303              29.841              
H              19.97               29.033              29.119              
H              19.997              30.437              25.937              
H              20.508              29.113              26.929              
N              12.634              30.435              27.457              
C              11.872              29.251              27.048              
C              10.403              29.416              27.452              
O              10.06               30.331              28.247              
C              12.487              27.963              27.632              
C              12.692              28.04               29.138              
O              11.75               28.395              29.871              
O              13.8                27.727              29.599              
H              12.325              31.079              28.214              
H              11.898              29.212              26.048              
H              11.869              27.214              27.431              
H              13.366              27.822              27.196              
N              9.544               28.588              26.858              
C              8.119               28.62               27.144              
C              7.781               28.455              28.626              
O              6.886               29.131              29.143              
C              7.387               27.579              26.281              
H              9.98                27.927              26.182              
H              7.743               29.514              26.83               
H              6.667               27.154              26.824              
H              6.989               28.034              25.488              
H              8.039               26.886              25.982              
N              8.5                 27.588              29.348              
C              8.213               27.372              30.751              
C              8.449               28.615              31.606              
O              7.67                28.877              32.518              
C              9.013               26.192              31.307              
C              8.512               24.841              30.79               
C              7.148               24.437              31.391              
H              9.251               27.107              28.826              
H              7.232               27.125              30.839              
H              9.966               26.29               31.036              
H              8.937               26.188              32.3                
H              8.41                24.892              29.8                
H              9.176               24.137              31.029              
O              6.083               24.576              30.739              
N              7.169               23.96               32.649              
H              6.314               23.693              33.102              
H              8.065               23.88               33.118              
N              9.443               29.413              31.251              
C              9.694               30.66               31.997              
C              8.536               31.662              31.843              
O              8.13                32.335              32.792              
C              11.025              31.26               31.605              
C              11.443              32.375              32.556              
C              12.761              33.047              32.175              
O              13.438              32.593              31.235              
O              13.071              34.096              32.812              
H              10.004              29.109              30.448              
H              9.821               30.446              32.973              
H              11.705              30.562              31.657              
H              10.937              31.652              30.716              
H              10.745              33.07               32.544              
H              11.56               31.989              33.455              
N              8.048               31.785              30.61               
C              6.903               32.586              30.273              
C              5.696               32.06               31.054              
O              5.001               32.82               31.677              
C              6.633               32.528              28.757              
C              5.237               32.935              28.335              
C              4.933               34.272              28.081              
C              4.273               31.992              28.07               
C              3.665               34.655              27.675              
C              3.006               32.374              27.636              
C              2.69                33.679              27.425              
H              8.592               31.229              29.891              
H              7.071               33.513              30.606              
H              7.275               33.141              28.314              
H              6.779               31.592              28.462              
H              5.642               34.966              28.192              
H              4.476               31.018              28.187              
H              3.444               35.627              27.561              
H              2.307               31.637              27.479              
H              1.794               33.959              27.1                
N              5.417               30.774              30.954              
C              4.221               30.212              31.637              
C              4.299               30.474              33.159              
O              3.266               30.719              33.797              
C              4.097               28.703              31.361              
H              6.06                30.208              30.392              
H              3.407               30.668              31.277              
H              3.794               28.568              30.421              
H              4.986               28.273              31.496              
H              3.432               28.31               31.991              
N              5.502               30.392              33.755              
C              5.646               30.629              35.193              
C              5.158               32.015              35.592              
O              4.48                32.149              36.632              
C              7.08                30.328              35.697              
H              6.283               30.156              33.127              
H              5.099               29.939              35.689              
H              7.091               30.391              36.69               
H              7.335               29.41               35.409              
H              7.705               30.996              35.304              
N              5.424               33.026              34.743              
C              4.971               34.392              35.024              
C              3.47                34.478              34.865              
O              2.8                 35.108              35.677              
C              5.614               35.451              34.124              
C              6.935               36.004              34.712              
O              7.255               35.693              35.888              
O              7.614               36.78               34.011              
H              5.959               32.757              33.904              
H              5.183               34.578              35.987              
H              5.818               35.038              33.249              
H              4.983               36.205              34.026              
N              2.913               33.849              33.832              
C              1.468               33.907              33.665              
C              0.784               33.231              34.872              
O              -0.197              33.775              35.407              
C              0.975               33.335              32.321              
C              -0.561              33.43               32.259              
C              1.55                34.15               31.172              
H              3.553               33.355              33.21               
H              1.185               34.866              33.658              
H              1.2                 32.373              32.297              
H              -0.954              32.598              32.642              
H              -0.859              34.221              32.788              
H              -0.842              33.531              31.308              
H              1.297               35.11               31.289              
H              2.546               34.062              31.171              
H              1.182               33.808              30.308              
N              1.258               32.046              35.262              
C              0.667               31.376              36.415              
C              0.859               32.091              37.732              
O              -0.02               32.06               38.551              
C              1.103               29.912              36.482              
C              0.49                29.172              35.32               
C              1.228               27.934              35.024              
N              0.603               27.073              34.028              
C              1.305               26.217              33.307              
N              0.706               25.438              32.416              
N              2.62                26.102              33.529              
H              2.032               31.672              34.707              
H              -0.338              31.27               36.244              
H              2.074               29.876              36.4                
H              0.765               29.528              37.312              
H              -0.461              28.945              35.543              
H              0.504               29.765              34.512              
H              2.157               28.173              34.698              
H              1.336               27.402              35.881              
H              -0.377              27.135              33.89               
H              -0.277              25.497              32.26               
H              1.251               24.777              31.887              
H              3.06                26.674              34.219              
H              3.156               25.445              33.003              
N              1.991               32.78               37.885              
C              2.265               33.669              39.032              
C              1.197               34.748              39.144              
O              0.644               35.023              40.24               
C              3.643               34.317              38.859              
C              4.112               35.397              39.872              
C              4.028               34.891              41.328              
C              5.503               35.946              39.535              
H              2.686               32.638              37.111              
H              2.251               33.114              39.868              
H              4.335               33.583              38.883              
H              3.671               34.747              37.948              
H              3.53                36.204              39.771              
H              4.611               34.089              41.426              
H              4.337               35.614              41.94               
H              3.082               34.652              41.533              
H              5.482               36.36               38.626              
H              5.758               36.634              40.213              
H              6.164               35.198              39.549              
N              0.891               35.382              38.017              
C              -0.149              36.396              37.996              
C              -1.507              35.843              38.526              
O              -2.162              36.482              39.405              
C              -0.244              36.936              36.56               
C              -1.402              37.87               36.337              
S              -1.551              38.323              34.614              
C              -2.456              36.885              34.042              
H              1.439               35.098              37.189              
H              0.12                37.15               38.607              
H              0.614               37.42               36.343              
H              -0.329              36.153              35.929              
H              -2.258              37.42               36.671              
H              -1.276              38.7                36.922              
H              -2.03               36.055              34.404              
H              -3.404              36.938              34.359              
H              -2.442              36.856              33.042              
N              -1.927              34.66               38.06               
C              -3.178              34.082              38.564              
C              -3.066              33.65               40.031              
O              -3.988              33.88               40.824              
C              -3.68               32.904              37.687              
C              -4.017              33.294              36.263              
C              -4.921              34.321              36                  
C              -3.419              32.607              35.16               
C              -5.197              34.662              34.689              
C              -3.717              32.963              33.838              
C              -4.605              34.005              33.622              
H              -1.328              34.22               37.359              
H              -3.872              34.813              38.53               
H              -2.961              32.23               37.658              
H              -4.498              32.549              38.109              
H              -5.359              34.801              36.742              
H              -2.782              31.867              35.347              
H              -5.858              35.42               34.507              
H              -3.294              32.469              33.079              
H              -4.824              34.29               32.683              
N              -1.961              33.022              40.396              
C              -1.746              32.568              41.784              
C              -1.77               33.736              42.752              
O              -2.303              33.605              43.835              
C              -0.41               31.799              41.942              
O              -0.415              30.597              41.133              
H              -1.264              32.874              39.642              
H              -2.501              31.946              42.02               
H              0.33                32.379              41.639              
H              -0.301              31.54               42.889              
H              -0.299              30.855              40.18               
N              -1.205              34.883              42.357              
C              -1.277              36.06               43.219              
C              -2.735              36.45               43.481              
O              -3.091              36.825              44.568              
C              -0.56               37.274              42.604              
C              0.939               37.146              42.59               
H              -0.743              34.859              41.444              
H              -0.88               35.806              44.106              
H              -0.886              37.38               41.664              
H              -0.813              38.083              43.137              
O              1.532               36.324              43.322              
N              1.591               37.998              41.769              
H              1.076               38.656              41.231              
H              2.585               37.958              41.712              
N              -3.551              36.405              42.44               
C              -4.984              36.673              42.562              
C              -5.73               35.734              43.532              
O              -6.525              36.18               44.395              
C              -5.637              36.69               41.142              
S              -7.3                37.373              41.046              
H              -3.094              36.165              41.535              
H              -5.101              37.624              42.907              
H              -5.029              37.223              40.548              
H              -5.655              35.74               40.818              
H              -7.957              36.713              41.413              
N              -5.481              34.44               43.384              
C              -6.046              33.429              44.24               
C              -5.548              33.51               45.699              
O              -6.268              33.15               46.626              
C              -5.783              32.015              43.688              
C              -6.182              31.788              42.232              
C              -7.339              32.354              41.69               
C              -5.398              30.98               41.397              
C              -7.701              32.132              40.368              
C              -5.745              30.78               40.052              
C              -6.886              31.351              39.555              
O              -7.242              31.178              38.272              
H              -4.834              34.221              42.585              
H              -7.057              33.543              44.261              
H              -4.803              31.826              43.772              
H              -6.293              31.361              44.251              
H              -7.92               32.932              42.268              
H              -4.584              30.542              41.76               
H              -8.541              32.531              40                  
H              -5.154              30.221              39.471              
H              -6.508              30.711              37.771              
N              -4.277              33.862              45.884              
H              -3.729              33.978              45.006              
H              11.9787             42.3162             25.4052             
H              -3.88704            34.0022             46.8055             
