187
1.xyz
C              -5.733              41.553              24.501              
O              -5.985              42.776              24.363              
N              -6.391              40.623              23.814              
C              -7.283              40.938              22.704              
C              -8.705              41.301              23.147              
O              -9.131              40.983              24.244              
C              -7.319              39.769              21.715              
O              -8.119              38.676              22.136              
H              -6.213              39.643              24.14               
H              -6.902              41.741              22.212              
H              -7.672              40.106              20.833              
H              -6.376              39.442              21.572              
H              -7.635              38.163              22.843              
N              -9.446              41.993              22.293              
C              -10.8               42.413              22.679              
C              -11.697             41.21               22.965              
O              -12.605             41.336              23.779              
C              -11.387             43.287              21.539              
C              -12.769             43.874              21.807              
C              -12.763             44.852              22.982              
C              -14.058             45.652              23.082              
N              -13.998             46.682              24.163              
H              -9.018              42.2                21.387              
H              -10.737             42.976              23.513              
H              -10.748             44.041              21.376              
H              -11.438             42.717              20.716              
H              -13.082             44.359              20.988              
H              -13.406             43.129              22.012              
H              -12.644             44.335              23.827              
H              -12.005             45.49               22.864              
H              -14.226             46.107              22.204              
H              -14.815             45.022              23.272              
H              -14.031             46.228              25.052              
H              -13.147             47.197              24.079              
H              -14.777             47.301              24.071              
N              -11.432             40.055              22.32               
C              -12.155             38.775              22.577              
C              -12.375             38.49               24.098              
O              -13.454             38.075              24.532              
C              -11.377             37.615              21.919              
C              -11.99              36.216              21.974              
C              -11.158             35.309              21.045              
C              -11.273             33.807              21.322              
N              -10.137             33.002              20.735              
H              -10.666             40.129              21.613              
H              -13.059             38.824              22.133              
H              -11.234             37.856              20.945              
H              -10.463             37.574              22.356              
H              -11.93              35.868              22.889              
H              -12.911             36.248              21.64               
H              -11.449             35.479              20.095              
H              -10.189             35.573              21.13               
H              -11.291             33.66               22.317              
H              -12.139             33.47               20.936              
H              -10.39              32.714              19.816              
H              -9.322              33.574              20.703              
H              -9.976              32.207              21.312              
N              -11.338             38.728              24.882              
C              -11.307             38.397              26.291              
C              -11.349             39.566              27.232              
O              -11.176             39.41               28.449              
C              -10.054             37.534              26.537              
C              -10.032             36.267              25.735              
H              -10.526             39.185              24.387              
H              -12.115             37.792              26.492              
H              -9.24               38.073              26.303              
H              -10.015             37.294              27.511              
N              -11                 35.33               25.822              
C              -9.129              35.815              24.798              
C              -10.73              34.334              24.972              
N              -9.574              34.623              24.345              
H              -8.301              36.3                24.521              
H              -11.276             33.527              24.826              
H              -9.141              34.037              23.663              
N              -11.552             40.76               26.693              
C              -11.366             42.001              27.45               
C              -12.312             42.099              28.648              
O              -12.004             42.724              29.663              
C              -11.544             43.194              26.524              
H              -11.852             40.744              25.696              
H              -10.414             42.031              27.791              
H              -10.751             43.799              26.601              
H              -11.628             42.876              25.58               
H              -12.37              43.696              26.78               
N              -13.51              41.519              28.523              
C              -14.486             41.604              29.632              
C              -14.01              41.029              30.972              
O              -14.469             41.476              32.041              
C              -15.853             41.032              29.233              
H              -13.686             41.036              27.642              
H              -14.721             42.589              29.77               
H              -16.145             41.449              28.375              
H              -15.774             40.044              29.119              
H              -16.516             41.237              29.95               
N              -13.175             39.981              30.922              
C              -12.6               39.375              32.13               
C              -11.092             39.583              32.211              
O              -10.537             39.408              33.273              
C              -12.974             37.883              32.264              
C              -13.044             37.17               30.95               
C              -14.214             37.202              30.195              
C              -11.955             36.46               30.446              
C              -14.297             36.56               28.978              
C              -12.023             35.819              29.208              
C              -13.188             35.84               28.488              
O              -13.305             35.25               27.256              
H              -12.972             39.638              29.961              
H              -13.023             39.818              32.933              
H              -12.283             37.448              32.831              
H              -13.864             37.833              32.705              
H              -15.01              37.702              30.546              
H              -11.113             36.409              30.976              
H              -15.134             36.597              28.432              
H              -11.212             35.345              28.854              
H              -13.313             35.957              26.55               
N              -10.415             39.942              31.106              
C              -8.959              40.112              31.14               
C              -8.51               41.456              31.687              
O              -7.366              41.598              32.111              
C              -8.342              39.901              29.747              
H              -10.993             40.081              30.266              
H              -8.566              39.375              31.724              
H              -8.472              38.951              29.473              
H              -8.793              40.506              29.095              
H              -7.368              40.112              29.786              
N              -9.357              42.471              31.67               
C              -8.852              43.831              31.93               
C              -8.141              44.085              33.239              
O              -7.189              44.877              33.244              
C              -9.905              44.902              31.622              
C              -11.061             44.917              32.583              
C              -12.314             44.283              32.469              
C              -11.109             45.613              33.873              
N              -13.078             44.52               33.589              
C              -12.412             45.319              34.459              
C              -10.208             46.408              34.589              
C              -12.787             45.82               35.713              
C              -10.6               46.906              35.832              
C              -11.86              46.63               36.366              
H              -10.332             42.251              31.474              
H              -8.189              44.05               31.166              
H              -9.476              45.797              31.664              
H              -10.277             44.736              30.716              
H              -12.59              43.744              31.682              
H              -14.007             44.147              33.736              
H              -9.306              46.619              34.229              
H              -13.672             45.604              36.109              
H              -9.957              47.473              36.343              
H              -12.11              47.028              37.254              
N              -8.577              43.436              34.362              
C              -7.873              43.662              35.62               
C              -6.427              43.239              35.594              
O              -5.651              43.686              36.438              
C              -8.661              42.838              36.621              
C              -10.054             42.738              36.033              
C              -9.783              42.61               34.576              
H              -7.959              44.641              35.901              
H              -8.265              41.922              36.731              
H              -8.695              43.287              37.517              
H              -10.517             41.937              36.395              
H              -10.569             43.562              36.242              
H              -9.601              41.659              34.31               
H              -10.545             42.959              34.02               
N              -6.07               42.386              34.628              
C              -4.712              41.851              34.447              
C              -3.798              42.61               33.458              
O              -2.586              42.244              33.243              
C              -4.86               40.345              34.053              
C              -5.743              39.589              35.018              
C              -5.253              39.226              36.267              
C              -7.109              39.375              34.741              
C              -6.081              38.616              37.196              
C              -7.946              38.737              35.657              
C              -7.434              38.373              36.901              
H              -6.866              42.12               33.987              
H              -4.251              41.905              35.36               
H              -5.272              40.317              33.167              
H              -3.966              39.951              34.076              
H              -4.303              39.405              36.499              
H              -7.48               39.691              33.867              
H              -5.71               38.341              38.094              
H              -8.902              38.544              35.417              
H              -8.016              37.943              37.583              
N              -4.342              43.679              32.866              
H              -5.32               43.883              33.167              
H              -5.00151            41.2187             25.222              
H              -3.84241            44.2369             32.1853             
