386
2.xyz
C              10.353              33.672              19.543              
O              10.477              34.395              20.52               
N              11.355              33.414              18.699              
C              12.687              34.004              18.909              
C              13.049              35.147              17.953              
O              14.003              35.873              18.205              
C              13.773              32.937              18.837              
C              13.943              32.288              17.487              
C              13.452              31.016              17.262              
C              14.665              32.911              16.472              
C              13.631              30.393              16.027              
C              14.849              32.307              15.238              
C              14.335              31.041              15.012              
H              11.124              32.789              17.916              
H              12.684              34.4                19.848              
H              14.638              33.363              19.079              
H              13.544              32.223              19.489              
H              12.963              30.532              17.981              
H              15.06               33.82               16.64               
H              13.25               29.475              15.875              
H              15.358              32.793              14.511              
H              14.462              30.589              14.133              
N              12.286              35.312              16.877              
C              12.542              36.379              15.917              
C              11.422              36.471              14.921              
O              10.777              35.479              14.577              
C              13.854              36.159              15.159              
C              14.37               37.434              14.492              
O              13.854              38.533              14.802              
O              15.319              37.339              13.678              
H              11.51               34.63               16.783              
H              12.56               37.243              16.436              
H              14.536              35.844              15.806              
H              13.695              35.478              14.456              
N              11.197              37.673              14.439              
C              10.23               37.857              13.395              
C              10.509              39.161              12.706              
O              11.005              40.109              13.318              
C              8.816               37.832              13.973              
O              7.872               38.263              13.025              
H              11.754              38.434              14.861              
H              10.34               37.119              12.725              
H              8.601               36.898              14.251              
H              8.786               38.437              14.766              
H              7.727               37.546              12.341              
N              10.199              39.203              11.425              
C              10.329              40.418              10.68               
C              9.055               41.247              10.66               
O              9.06                42.321              10.094              
C              10.734              40.098              9.263               
O              9.727               39.345              8.632               
H              9.865               38.304              11.026              
H              11.055              40.987              11.112              
H              10.868              40.946              8.761               
H              11.576              39.568              9.275               
H              8.868               39.439              9.137               
N              7.964               40.771              11.25               
C              6.686               41.47               11.04               
C              6.535               42.735              11.888              
O              6.063               43.738              11.378              
C              5.492               40.544              11.293              
C              5.431               39.277              10.446              
C              4.541               38.268              11.135              
C              4.923               39.571              9.082               
H              8.079               39.939              11.82               
H              6.627               41.734              10.062              
H              5.523               40.264              12.249              
H              4.662               41.064              11.116              
H              6.349               38.906              10.351              
H              3.619               38.645              11.241              
H              4.492               37.43               10.589              
H              4.913               38.049              12.04               
H              5.524               40.231              8.616               
H              4.886               38.73               8.53                
H              3.996               39.962              9.127               
N              6.941               42.695              13.173              
C              6.747               43.859              14.044              
C              7.342               45.144              13.478              
O              6.63                46.156              13.421              
C              7.459               43.442              15.33               
C              7.294               41.973              15.357              
C              7.469               41.55               13.932              
H              5.759               43.985              14.252              
H              8.426               43.701              15.296              
H              7.03                43.873              16.125              
H              7.987               41.545              15.945              
H              6.383               41.722              15.696              
H              8.432               41.396              13.708              
H              6.945               40.721              13.725              
N              8.599               45.101              13.042              
C              9.204               46.249              12.37               
C              8.84                46.348              10.894              
O              9.325               47.229              10.187              
C              10.72               46.195              12.544              
C              11.094              46.58               13.969              
C              12.226              45.778              14.558              
H              9.094               44.211              13.216              
H              8.865               47.09               12.829              
H              11.031              45.275              12.38               
H              11.139              46.841              11.928              
H              11.351              47.555              13.977              
H              10.279              46.466              14.552              
O              12.302              44.539              14.425              
N              13.127              46.484              15.241              
H              13.923              46.013              15.687              
H              13.017              47.488              15.314              
N              7.969               45.451              10.451              
C              7.546               45.367              9.05                
C              8.68                45.639              8.081               
O              8.625               46.534              7.254               
C              6.38                46.314              8.777               
C              5.458               45.765              7.733               
H              7.605               44.802              11.189              
H              7.239               44.415              8.893               
H              5.876               46.439              9.624               
H              6.751               47.181              8.462               
O              5.497               46.176              6.579               
N              4.639               44.788              8.122               
H              4.66                44.467              9.068               
H              4.005               44.378              7.468               
N              9.725               44.838              8.209               
C              10.863              44.955              7.341               
C              11.221              43.591              6.779               
O              11.895              42.799              7.433               
C              12.045              45.547              8.08                
C              13.221              45.799              7.148               
C              14.421              46.357              7.856               
H              9.645               44.138              8.974               
H              10.616              45.547              6.568               
H              11.78               46.416              8.482               
H              12.342              44.913              8.786               
H              13.473              44.93               6.715               
H              12.93               46.446              6.439               
O              14.307              46.977              8.923               
N              15.591              46.151              7.266               
H              16.458              46.512              7.677               
H              15.621              45.627              6.395               
N              10.79               43.326              5.545               
C              11.139              42.036              4.94                
C              12.656              41.783              4.878               
O              13.476              42.71               4.753               
C              10.546              42.143              3.538               
C              9.493               43.224              3.659               
C              10.075              44.202              4.599               
H              10.677              41.275              5.428               
H              11.243              42.409              2.871               
H              10.129              41.279              3.256               
H              9.319               43.627              2.758               
H              8.642               42.827              4.01                
H              10.716              44.822              4.152               
H              9.376               44.73               5.079               
N              12.994              40.506              4.977               
C              14.344              39.995              4.879               
C              14.613              39.709              3.41                
O              13.755              39.176              2.72                
C              14.461              38.747              5.75                
C              15.747              38.004              5.601               
C              15.776              36.791              4.938               
C              16.917              38.494              6.158               
C              16.954              36.088              4.793               
C              18.104              37.788              6.035               
C              18.13               36.585              5.343               
H              12.159              39.866              5.14                
H              14.96               40.729              5.146               
H              14.376              39.032              6.698               
H              13.719              38.135              5.501               
H              14.932              36.415              4.555               
H              16.906              39.363              6.651               
H              16.96               35.215              4.29                
H              18.952              38.154              6.454               
H              18.981              36.079              5.238               
N              15.793              40.089              2.937               
C              16.131              39.985              1.531               
C              17.405              39.176              1.373               
O              18.411              39.497              1.978               
C              16.292              41.39               0.912               
C              16.78               41.306              -0.526              
C              14.961              42.126              0.957               
H              16.447              40.464              3.659               
H              15.392              39.494              1.063               
H              16.995              41.87               1.432               
H              17.683              41.73               -0.598              
H              16.841              40.347              -0.803              
H              16.139              41.785              -1.125              
H              14.849              42.658              0.118               
H              14.218              41.461              1.035               
H              14.949              42.738              1.747               
N              17.364              38.111              0.579               
C              18.543              37.261              0.41                
C              18.556              36.583              -0.956              
O              17.541              36.516              -1.648              
C              18.611              36.201              1.543               
C              17.648              35.047              1.382               
C              16.29               35.227              1.539               
C              18.112              33.79               1.109               
C              15.414              34.166              1.396               
C              17.232              32.716              0.965               
C              15.898              32.91               1.111               
H              16.463              37.942              0.11                
H              19.348              37.868              0.442               
H              19.53               35.837              1.551               
H              18.399              36.663              2.391               
H              15.928              36.132              1.757               
H              19.097              33.624              1.008               
H              14.423              34.323              1.504               
H              17.614              31.798              0.752               
H              15.252              32.144              1.013               
N              19.711              36.058              -1.339              
C              19.812              35.295              -2.574              
C              19.676              33.818              -2.275              
O              20.447              33.265              -1.491              
C              21.145              35.562              -3.263              
O              21.171              36.873              -3.745              
H              20.508              36.233              -0.704              
H              19.051              35.565              -3.17               
H              21.875              35.435              -2.603              
H              21.244              34.927              -4.02               
H              20.355              37.051              -4.299              
N              18.71               33.173              -2.906              
C              18.491              31.745              -2.695              
C              19.628              30.878              -3.221              
O              20.08               31.04               -4.359              
C              17.183              31.332              -3.376              
C              16.597              29.958              -3.079              
C              16.411              29.763              -1.618              
C              15.277              29.863              -3.767              
H              18.136              33.751              -3.546              
H              18.4                31.579              -1.697              
H              16.483              32.016              -3.126              
H              17.331              31.386              -4.372              
H              17.221              29.259              -3.446              
H              15.785              30.458              -1.247              
H              16.024              28.853              -1.43               
H              17.292              29.839              -1.137              
H              15.391              29.978              -4.76               
H              14.856              28.966              -3.594              
H              14.655              30.579              -3.431              
N              20.079              29.94               -2.398              
C              20.934              28.883              -2.87               
C              22.4                29.257              -2.942              
O              23.215              28.517              -3.495              
H              19.765              30.04               -1.413              
H              20.831              28.065              -2.264              
H              20.623              28.582              -3.798              
N              22.741              30.398              -2.361              
C              24.107              30.869              -2.373              
C              24.802              30.625              -1.024              
O              25.954              30.984              -0.855              
C              24.158              32.368              -2.724              
O              23.513              33.117              -1.696              
C              23.43               32.64               -4.024              
H              21.957              30.908              -1.909              
H              24.623              30.365              -3.08               
H              25.134              32.66               -2.77               
H              24.084              32.923              -4.731              
H              22.956              31.811              -4.332              
H              22.755              33.371              -3.893              
H              22.513              33.039              -1.777              
N              24.12               30.024              -0.06               
C              24.746              29.789              1.235               
C              24.757              31.005              2.158               
O              25.47               31.058              3.165               
H              23.158              29.752              -0.295              
H              24.265              29.021              1.706               
H              25.707              29.475              1.091               
N              23.924              31.983              1.843               
C              23.779              33.173              2.671               
C              23.03               32.844              3.987               
O              23.23               33.493              5.028               
C              23.046              34.25               1.849               
C              22.779              35.543              2.574               
C              22.232              36.614              1.649               
H              23.386              31.832              0.963               
H              24.695              33.497              2.925               
H              23.6                34.45               1.031               
H              22.164              33.865              1.545               
H              22.11               35.38               3.298               
H              23.632              35.876              2.974               
O              22.057              36.387              0.449               
N              21.955              37.792              2.205               
H              21.599              38.561              1.645               
H              22.106              37.909              3.205               
N              22.207              31.797              3.933               
C              21.325              31.426              5.026               
C              21.517              29.956              5.397               
O              22.167              29.186              4.687               
C              19.822              31.677              4.684               
C              19.513              33.151              4.629               
C              19.42               30.99               3.381               
H              22.254              31.265              3.03                
H              21.566              31.979              5.83                
H              19.286              31.282              5.426               
H              20.36               33.681              4.712               
H              19.071              33.375              3.757               
H              18.898              33.399              5.38                
H              19.682              30.027              3.424               
H              18.431              31.067              3.262               
H              19.888              31.434              2.618               
N              20.973              29.567              6.53                
C              21.108              28.179              6.965               
C              20.555              27.246              5.877               
O              19.73               27.66               5.05                
C              20.4                27.971              8.305               
C              18.926              28.41               8.237               
C              21.104              28.78               9.36                
C              18.134              28.136              9.512               
H              20.467              30.287              7.061               
H              22.087              27.994              7.023               
H              20.415              26.996              8.52                
H              18.898              29.389              8.045               
H              18.491              27.922              7.482               
H              20.671              28.632              10.251              
H              22.066              28.506              9.417               
H              21.056              29.754              9.133               
H              18.556              28.629              10.269              
H              17.196              28.448              9.385               
H              18.144              27.156              9.697               
N              21.024              26.004              5.87                
C              20.735              25.06               4.802               
C              19.26               24.78               4.671               
O              18.773              24.596              3.565               
C              21.489              23.749              5.026               
C              22.994              23.897              4.945               
C              23.564              23.6                3.558               
C              24.862              22.784              3.645               
N              24.707              21.482              4.411               
H              21.618              25.764              6.698               
H              21.076              25.447              3.927               
H              21.253              23.406              5.931               
H              21.196              23.1                4.328               
H              23.248              24.841              5.197               
H              23.425              23.27               5.607               
H              22.899              23.074              3.042               
H              23.765              24.458              3.101               
H              25.176              22.571              2.714               
H              25.566              23.34               4.1                 
H              24.687              20.731              3.759               
H              25.481              21.384              5.028               
H              23.856              21.517              4.925               
N              18.545              24.793              5.798               
C              17.139              24.451              5.828               
C              16.293              25.475              5.078               
O              15.205              25.156              4.558               
H              19.09               25.07               6.645               
H              17                  23.541              5.41                
H              16.821              24.4                6.786               
N              16.789              26.706              5.011               
C              16.15               27.727              4.186               
C              16.482              27.507              2.711               
O              15.581              27.446              1.894               
C              16.569              29.134              4.638               
C              15.677              29.723              5.669               
C              15.32               29.163              6.86                
C              15.031              31.012              5.623               
N              14.493              30.022              7.556               
C              14.293              31.145              6.816               
C              15.006              32.052              4.689               
C              13.539              32.304              7.102               
C              14.257              33.192              4.972               
C              13.532              33.303              6.171               
H              17.638              26.871              5.575               
H              15.156              27.628              4.29                
H              17.484              29.083              5.023               
H              16.558              29.736              3.847               
H              15.609              28.267              7.186               
H              14.106              29.84               8.461               
H              15.513              31.988              3.833               
H              13.034              32.366              7.967               
H              14.238              33.934              4.312               
H              13.004              34.137              6.333               
N              17.762              27.378              2.356               
C              18.136              27.237              0.955               
C              17.515              26.03               0.333               
O              17.311              26.011              -0.873              
C              19.657              27.1                0.754               
C              20.354              28.427              0.496               
O              21.598              28.485              0.611               
O              19.668              29.406              0.181               
H              18.436              27.387              3.136               
H              17.776              28.052              0.473               
H              20.037              26.694              1.579               
H              19.808              26.502              -0.026              
N              17.275              24.99               1.127               
H              17.517              25.13               2.12                
H              16.8843             24.1407             0.753694            
H              9.4156              33.2085             19.3692             
