361
6.xyz
C              34.484              30.348              3.232               
C              34.023              30.352              4.679               
O              33.103              31.063              5.058               
C              33.796              29.165              2.529               
C              34.056              29.059              1.025               
C              33.482              27.8                0.489               
O              34.168              26.792              0.491               
O              32.278              27.768              0.228               
H              34.167              31.173              2.763               
H              34.13               28.335              2.947               
H              32.823              29.268              2.655               
H              33.613              29.815              0.595               
H              35.022              29.045              0.891               
N              34.652              29.504              5.465               
C              34.323              29.366              6.908               
C              34.73               30.633              7.676               
O              33.942              31.184              8.443               
C              35.055              28.164              7.456               
S              34.783              27.918              9.228               
H              35.395              28.937              5.01                
H              33.332              29.257              6.987               
H              34.737              27.351              6.981               
H              36.031              28.29               7.31                
H              34.076              27.224              9.362               
N              35.92               31.151              7.42                
C              36.358              32.371              8.055               
C              35.397              33.503              7.659               
O              35.033              34.34               8.516               
C              37.818              32.678              7.66                
C              38.736              31.621              8.325               
C              38.203              34.124              7.984               
C              40.122              31.514              7.703               
H              36.493              30.614              6.74                
H              36.246              32.245              9.038               
H              37.902              32.576              6.685               
H              38.83               31.856              9.29                
H              38.282              30.734              8.253               
H              39.133              34.296              7.667               
H              37.572              34.744              7.524               
H              38.153              34.265              8.97                
H              40.583              32.395              7.78                
H              40.644              30.816              8.187               
H              40.03               31.262              6.742               
N              34.957              33.534              6.404               
C              33.992              34.559              5.986               
C              32.681              34.47               6.768               
O              32.108              35.52               7.134               
C              33.675              34.503              4.473               
C              32.603              35.499              4.054               
C              32.985              36.944              4.38                
H              35.333              32.812              5.78                
H              34.402              35.462              6.174               
H              34.509              34.707              3.97                
H              33.356              33.585              4.253               
H              32.462              35.427              3.069               
H              31.755              35.283              4.534               
O              32.421              37.632              5.295               
N              33.962              37.425              3.641               
H              34.279              38.401              3.781               
H              34.402              36.845              2.94                
N              32.224              33.265              7.024               
C              31.006              33.059              7.803               
C              31.167              33.587              9.233               
O              30.253              34.226              9.784               
C              30.553              31.596              7.803               
C              29.86               31.188              6.512               
O              29.541              32.041              5.677               
O              29.642              29.96               6.377               
H              32.788              32.483              6.635               
H              30.278              33.604              7.371               
H              31.358              31.025              7.926               
H              29.92               31.47               8.558               
N              32.314              33.341              9.856               
C              32.554              33.905              11.192              
C              32.518              35.434              11.126              
O              31.848              36.083              11.951              
C              33.879              33.463              11.778              
C              33.838              32.146              12.457              
C              33.358              32.013              13.746              
C              34.351              31.017              11.822              
C              33.372              30.759              14.356              
C              34.341              29.764              12.45               
C              33.866              29.652              13.728              
H              32.984              32.754              9.352               
H              31.787              33.622              11.769              
H              34.538              33.41               11.035              
H              34.161              34.147              12.442              
H              33.005              32.792              14.239              
H              34.733              31.098              10.901              
H              32.996              30.686              15.307              
H              34.689              28.96               11.944              
H              33.879              28.768              14.2                
N              33.172              36.012              10.106              
C              33.171              37.47               9.972               
C              31.785              38.031              9.765               
O              31.428              39.076              10.343              
C              34.145              37.88               8.89                
C              35.614              37.684              9.346               
H              33.646              35.371              9.465               
H              33.521              37.844              10.846              
H              34.004              37.318              8.088               
H              34.023              38.84               8.682               
O              36.509              37.429              8.54                
N              35.857              37.877              10.625              
H              35.112              38.13               11.25               
H              36.787              37.772              10.987              
N              30.972              37.345              8.988               
C              29.601              37.736              8.791               
C              28.84               37.735              10.134              
O              28.068              38.678              10.436              
C              28.876              36.823              7.788               
O              29.506              37.024              6.483               
C              27.42               37.129              7.643               
H              31.404              36.508              8.537               
H              29.57               38.673              8.426               
H              29.018              35.859              8.049               
H              27.287              38.078              7.333               
H              26.995              36.513              6.969               
H              26.945              37.013              8.524               
H              30.408              36.592              6.477               
N              29.008              36.676              10.898              
C              28.363              36.588              12.217              
C              28.753              37.784              13.099              
O              27.894              38.413              13.71               
C              28.758              35.273              12.908              
C              28.099              35.06               14.243              
S              28.673              33.581              15.065              
C              30.244              34.065              15.732              
H              29.61               35.932              10.512              
H              27.369              36.617              12.08               
H              28.516              34.506              12.297              
H              29.76               35.267              13.033              
H              28.264              35.891              14.827              
H              27.079              35.03               14.106              
H              30.113              34.582              16.583              
H              30.8                33.252              15.928              
H              30.734              34.643              15.074              
N              30.047              38.096              13.17               
C              30.498              39.186              14.054              
C              29.972              40.523              13.512              
O              29.426              41.31               14.265              
C              32.015              39.21               14.19               
C              32.589              38.018              14.895              
C              32.147              37.668              16.145              
C              33.572              37.235              14.302              
C              32.688              36.566              16.799              
C              34.12               36.141              14.978              
C              33.664              35.816              16.22               
H              30.675              37.539              12.584              
H              30.06               39.042              14.938              
H              32.402              39.242              13.278              
H              32.262              40.019              14.707              
H              31.435              38.196              16.598              
H              33.893              37.453              13.381              
H              32.335              36.334              17.726              
H              34.854              35.606              14.528              
H              34.046              35.023              16.71               
N              30.15               40.775              12.206              
C              29.616              41.98               11.642              
C              28.144              42.18               11.772              
O              27.635              43.281              12.057              
C              30.077              42.136              10.159              
O              31.515              42.212              10.136              
C              29.589              43.406              9.602               
H              30.674              40.058              11.693              
H              30.093              42.783              12.091              
H              29.792              41.311              9.646               
H              30.286              44.135              9.687               
H              29.361              43.312              8.621               
H              28.756              43.72               10.082              
H              31.883              42.076              11.06               
N              27.373              41.101              11.653              
C              25.95               41.169              11.871              
C              25.624              41.644              13.265              
O              24.633              42.33               13.489              
C              25.291              39.799              11.665              
C              25.171              39.395              10.235              
H              27.882              40.233              11.396              
H              25.578              41.856              11.228              
H              25.841              39.118              12.156              
H              24.376              39.835              12.077              
O              25.313              40.187              9.313               
N              24.804              38.109              10.044              
H              24.63               37.512              10.813              
H              24.709              37.767              9.105               
N              26.388              41.201              14.262              
C              26.171              41.632              15.63               
C              26.435              43.149              15.758              
O              25.655              43.901              16.362              
C              27.095              40.869              16.545              
S              26.841              41.218              18.326              
H              27.132              40.537              13.976              
H              25.212              41.472              15.873              
H              26.953              39.891              16.41               
H              28.039              41.108              16.327              
H              27.505              41.901              18.617              
N              27.522              43.582              15.165              
C              27.856              45.004              15.227              
C              26.84               45.855              14.493              
O              26.555              46.992              14.946              
C              29.276              45.24               14.753              
C              30.323              44.385              15.459              
C              30.161              43.975              16.778              
C              31.426              43.905              14.779              
C              31.103              43.19               17.402              
C              32.383              43.11               15.408              
C              32.2                42.733              16.715              
O              33.118              41.938              17.412              
H              28.09               42.881              14.68               
H              27.861              45.282              16.199              
H              29.328              45.037              13.776              
H              29.513              46.198              14.91               
H              29.34               44.26               17.282              
H              31.547              44.129              13.809              
H              30.985              42.946              18.378              
H              33.197              42.82               14.902              
H              33.948              41.865              16.869              
N              26.279              45.348              13.396              
C              25.292              46.091              12.652              
C              23.967              46.232              13.371              
O              23.412              47.314              13.464              
C              25.081              45.43               11.27               
C              26.293              45.669              10.387              
C              23.82               45.888              10.612              
C              26.379              44.706              9.212               
H              26.611              44.399              13.139              
H              25.663              47.032              12.542              
H              24.985              44.452              11.416              
H              26.257              46.6                10.034              
H              27.117              45.564              10.94               
H              23.678              45.393              9.751               
H              23.034              45.72               11.213              
H              23.869              46.87               10.413              
H              25.565              44.809              8.645               
H              27.193              44.917              8.676               
H              26.434              43.772              9.558               
N              23.471              45.125              13.931              
C              22.173              45.113              14.575              
C              22.179              45.937              15.866              
O              21.184              46.624              16.17               
C              21.674              43.684              14.827              
C              20.285              43.678              15.417              
C              19.177              44.079              14.671              
C              20.05               43.243              16.725              
C              17.925              44.128              15.236              
C              18.781              43.238              17.266              
C              17.72               43.695              16.508              
O              16.436              43.709              17.056              
H              24.091              44.293              13.862              
H              21.498              45.528              13.949              
H              21.652              43.207              13.963              
H              22.288              43.25               15.466              
H              19.301              44.335              13.71               
H              20.825              42.928              17.276              
H              17.148              44.491              14.692              
H              18.628              42.908              18.197              
H              15.803              44.058              16.372              
N              23.265              45.853              16.623              
C              23.386              46.484              17.918              
C              24.233              47.758              17.853              
O              24.467              48.32               16.772              
C              23.953              45.448              18.883              
C              23.124              44.157              18.886              
H              24.038              45.28               16.192              
H              22.461              46.767              18.208              
H              24.877              45.221              18.604              
H              23.942              45.824              19.8                
O              22.093              44.105              19.559              
N              23.633              43.103              18.224              
H              24.521              43.206              17.771              
H              23.136              42.249              18.191              
N              24.584              48.278              19.027              
C              25.283              49.555              19.113              
C              26.563              49.375              19.897              
O              26.683              48.498              20.75               
C              24.381              50.563              19.822              
C              23.081              50.833              19.075              
C              23.363              51.305              17.666              
C              22.142              51.92               16.986              
N              21.02               50.934              16.935              
H              24.323              47.709              19.853              
H              25.507              49.865              18.186              
H              24.155              50.204              20.721              
H              24.877              51.421              19.907              
H              22.549              49.99               19.038              
H              22.569              51.537              19.561              
H              24.087              51.996              17.691              
H              23.668              50.527              17.114              
H              21.852              52.721              17.504              
H              22.388              52.186              16.057              
H              20.67               50.786              17.859              
H              20.293              51.294              16.353              
H              21.357              50.072              16.56               
N              27.548              50.266              19.651              
C              28.784              50.151              20.366              
C              28.607              50.19               21.875              
O              27.84               50.971              22.409              
C              29.594              51.38               19.872              
C              29.067              51.621              18.499              
C              27.59               51.279              18.582              
H              29.29               49.307              20.094              
H              29.428              52.162              20.469              
H              30.568              51.166              19.857              
H              29.191              52.579              18.232              
H              29.527              51.032              17.832              
H              27.049              52.078              18.831              
H              27.259              50.899              17.721              
N              29.325              49.324              22.564              
C              29.191              49.262              24.001              
C              28.004              48.506              24.569              
O              27.945              48.305              25.792              
H              29.957              48.727              22.012              
H              30.06               48.858              24.402              
H              29.176              50.23               24.378              
N              27.077              48.024              23.716              
C              26.024              47.135              24.19               
C              26.686              45.875              24.743              
O              27.727              45.453              24.239              
C              25.067              46.708              23.083              
C              24.096              47.766              22.663              
O              23.915              48.807              23.383              
O              23.437              47.567              21.589              
H              27.184              48.334              22.741              
H              25.573              47.587              24.954              
H              25.62               46.438              22.29               
H              24.559              45.908              23.412              
N              26.073              45.243              25.74               
C              26.63               43.998              26.286              
C              26.857              42.938              25.195              
O              27.902              42.222              25.218              
C              25.722              43.445              27.373              
C              25.838              44.235              28.697              
O              26.819              44.985              28.887              
O              24.89               44.075              29.52               
H              25.21               45.682              26.083              
H              27.536              44.221              26.669              
H              24.783              43.505              27.065              
H              25.978              42.506              27.555              
N              25.872              42.761              24.321              
C              25.971              41.697              23.259              
C              27.204              41.99               22.356              
O              27.88               41.055              21.868              
C              24.694              41.48               22.454              
C              24.775              40.275              21.51               
C              24.297              42.737              21.677              
C              24.827              38.919              22.171              
H              25.062              43.378              24.413              
H              26.169              40.855              23.742              
H              23.94               41.311              23.099              
H              23.978              40.307              20.893              
H              25.598              40.386              20.937              
H              23.406              42.594              21.252              
H              24.249              43.511              22.304              
H              24.979              42.918              20.973              
H              24.004              38.785              22.722              
H              24.878              38.208              21.47               
H              25.634              38.866              22.759              
N              27.484              43.287              22.117              
H              26.818              43.952              22.552              
H              35.5766             30.3189             3.1825              
H              28.2764             43.5618             21.5619             
