302
0.xyz
N              19.142              -10.941             -13.935             
C              19.846              -9.695              -14.188             
C              19.667              -9.236              -15.633             
O              19.371              -10.032             -16.527             
C              21.329              -9.847              -13.857             
C              22.019              -8.547              -13.628             
N              23.385              -8.433              -13.512             
C              21.529              -7.281              -13.519             
C              23.711              -7.167              -13.319             
N              22.598              -6.452              -13.323             
H              18.171              -10.76              -13.758             
H              19.466              -8.982              -13.584             
H              21.423              -10.408             -13.028             
H              21.786              -10.321             -14.618             
H              24.034              -9.195              -13.567             
H              20.571              -7.016              -13.572             
H              24.63               -6.813              -13.192             
H              19.218              -11.548             -14.73              
H              19.535              -11.404             -13.137             
N              19.85               -7.941              -15.847             
C              19.585              -7.315              -17.128             
C              20.751              -6.412              -17.504             
O              21.486              -5.95               -16.637             
C              18.286              -6.511              -17.061             
C              17.075              -7.335              -16.727             
C              16.759              -7.627              -15.414             
C              16.242              -7.807              -17.732             
C              15.639              -8.375              -15.102             
C              15.12               -8.554              -17.425             
C              14.82               -8.842              -16.111             
H              20.201              -7.413              -15.014             
H              19.552              -8.045              -17.814             
H              18.392              -5.823              -16.358             
H              18.14               -6.098              -17.948             
H              17.345              -7.294              -14.676             
H              16.457              -7.603              -18.688             
H              15.428              -8.576              -14.137             
H              14.521              -8.889              -18.175             
H              14.011              -9.387              -15.884             
N              20.92               -6.157              -18.793             
C              22.021              -5.331              -19.265             
C              21.559              -3.961              -19.74              
O              20.416              -3.774              -20.156             
C              22.76               -6.025              -20.408             
C              23.302              -7.4                -20.077             
C              23.51               -8.246              -21.318             
O              23.798              -7.673              -22.391             
O              23.378              -9.483              -21.223             
H              20.215              -6.588              -19.422             
H              22.702              -5.216              -18.522             
H              22.123              -6.126              -21.158             
H              23.525              -5.453              -20.661             
H              24.174              -7.293              -19.642             
H              22.651              -7.864              -19.509             
N              22.467              -3                  -19.664             
C              22.309              -1.713              -20.324             
C              21.883              -1.924              -21.777             
O              22.479              -2.731              -22.485             
C              23.63               -0.946              -20.249             
C              23.521              0.547               -20.287             
C              24.864              1.206               -20.06              
O              25.26               1.359               -18.881             
O              25.526              1.555               -21.058             
H              23.308              -3.245              -19.089             
H              21.614              -1.169              -19.85              
H              24.069              -1.201              -19.395             
H              24.182              -1.235              -21.023             
H              23.207              0.82                -21.174             
H              22.925              0.842               -19.567             
N              20.831              -1.235              -22.212             
C              20.351              -1.338              -23.58              
C              19.363              -2.464              -23.867             
O              18.867              -2.59               -24.989             
H              20.389              -0.623              -21.493             
H              19.918              -0.443              -23.851             
H              21.159              -1.44               -24.212             
N              19.072              -3.28               -22.859             
C              18.187              -4.429              -23.042             
C              16.715              -4.044              -23.021             
O              16.283              -3.224              -22.21              
C              18.454              -5.477              -21.965             
C              17.634              -6.754              -22.101             
C              18.004              -7.795              -21.069             
O              19.048              -7.634              -20.406             
O              17.253              -8.775              -20.904             
H              19.515              -3.037              -21.955             
H              18.404              -4.883              -23.923             
H              19.407              -5.73               -22.02              
H              18.234              -5.075              -21.091             
H              16.688              -6.525              -21.971             
H              17.807              -7.137              -22.989             
N              15.951              -4.651              -23.921             
C              14.504              -4.486              -23.942             
C              13.865              -5.419              -22.932             
O              14.19               -6.606              -22.86              
C              13.965              -4.743              -25.349             
C              14.17               -3.557              -26.279             
C              13.938              -3.962              -27.722             
N              12.842              -4.92               -27.828             
C              11.848              -4.837              -28.703             
N              11.79               -3.823              -29.555             
N              10.899              -5.762              -28.71              
H              16.469              -5.246              -24.6               
H              14.282              -3.539              -23.695             
H              14.444              -5.52               -25.73              
H              12.994              -4.919              -25.284             
H              13.524              -2.839              -26.048             
H              15.103              -3.227              -26.194             
H              13.713              -3.146              -28.242             
H              14.773              -4.377              -28.066             
H              12.84               -5.703              -27.189             
H              12.496              -3.12               -29.569             
H              11.02               -3.76               -30.202             
H              10.946              -6.531              -28.068             
H              10.137              -5.697              -29.353             
N              12.978              -4.858              -22.12              
C              12.39               -5.563              -21                 
C              10.942              -5.137              -20.856             
O              10.501              -4.159              -21.484             
C              13.116              -5.238              -19.663             
C              14.599              -5.575              -19.745             
C              12.943              -3.773              -19.332             
H              12.743              -3.866              -22.361             
H              12.407              -6.544              -21.199             
H              12.719              -5.822              -18.961             
H              14.718              -6.567              -19.705             
H              14.973              -5.229              -20.605             
H              15.08               -5.151              -18.978             
H              13.372              -3.215              -20.045             
H              11.967              -3.554              -19.28              
H              13.375              -3.575              -18.451             
N              10.212              -5.866              -20.02              
C              8.919               -5.406              -19.545             
C              9.097               -4.832              -18.142             
O              9.709               -5.47               -17.277             
C              7.913               -6.547              -19.524             
C              7.492               -7.059              -20.904             
C              6.804               -8.413              -20.763             
C              6.582               -6.032              -21.544             
H              10.638              -6.771              -19.744             
H              8.593               -4.678              -20.143             
H              8.32                -7.31               -19.039             
H              7.095               -6.23               -19.064             
H              8.302               -7.157              -21.475             
H              5.995               -8.316              -20.184             
H              6.531               -8.743              -21.666             
H              7.436               -9.066              -20.346             
H              7.069               -5.161              -21.64              
H              6.296               -6.351              -22.45              
H              5.771               -5.895              -20.972             
N              8.564               -3.637              -17.921             
C              8.719               -2.963              -16.626             
C              7.368               -2.665              -16.031             
O              6.512               -2.064              -16.688             
C              9.518               -1.676              -16.782             
H              8.044               -3.23               -18.716             
H              9.225               -3.575              -16.01              
H              8.918               -0.949              -17.114             
H              9.902               -1.412              -15.898             
H              10.259              -1.821              -17.437             
N              7.185               -3.068              -14.777             
C              5.902               -2.882              -14.136             
C              5.771               -1.476              -13.585             
O              6.633               -0.994              -12.853             
C              5.713               -3.893              -13.019             
C              4.271               -3.933              -12.514             
C              4.036               -5.139              -11.64              
C              2.561               -5.25               -11.27              
N              2.381               -6.119              -10.081             
H              8.004               -3.503              -14.33              
H              5.169               -3.033              -14.814             
H              5.944               -4.793              -13.361             
H              6.299               -3.642              -12.26              
H              4.094               -3.103              -11.987             
H              3.657               -3.969              -13.301             
H              4.297               -5.959              -12.134             
H              4.561               -5.048              -10.804             
H              2.209               -4.336              -11.071             
H              2.063               -5.638              -12.044             
H              2.363               -5.555              -9.255              
H              1.519               -6.62               -10.161             
H              3.14                -6.769              -10.024             
N              4.695               -0.809              -13.967             
C              4.352               0.47                -13.384             
C              2.896               0.396               -12.966             
O              2.033               0.044               -13.771             
C              4.585               1.614               -14.366             
C              4.26                2.957               -13.8               
H              4.131               -1.275              -14.706             
H              4.906               0.613               -12.571             
H              5.55                1.614               -14.647             
H              4.014               1.467               -15.181             
N              5.181               3.724               -13.111             
C              3.104               3.662               -13.783             
C              4.61                4.842               -12.713             
N              3.347               4.832               -13.106             
H              6.133               3.464               -12.945             
H              2.235               3.384               -14.186             
H              5.051               5.575               -12.2               
N              2.634               0.719               -11.703             
C              1.312               0.536               -11.141             
C              0.898               -0.916              -11.324             
O              1.551               -1.827              -10.818             
C              0.301               1.482               -11.797             
O              0.52                2.818               -11.374             
H              3.44                1.102               -11.175             
H              1.357               0.721               -10.159             
H              0.409               1.432               -12.783             
H              -0.615              1.204               -11.532             
H              1.27                3.215               -11.901             
N              -0.18               -1.125              -12.069             
C              -0.784              -2.446              -12.145             
C              -0.36               -3.3                -13.333             
O              -0.776              -4.446              -13.432             
C              -2.309              -2.307              -12.147             
C              -2.814              -1.541              -10.952             
O              -2.448              -1.934              -9.828              
O              -3.574              -0.569              -11.139             
H              -0.538              -0.297              -12.571             
H              -0.501              -2.954              -11.3               
H              -2.569              -1.825              -12.975             
H              -2.698              -3.22               -12.136             
N              0.474               -2.778              -14.222             
C              0.8                 -3.574              -15.401             
C              2.196               -3.335              -15.955             
O              2.913               -2.441              -15.508             
C              -0.252              -3.321              -16.49              
S              -0.426              -1.599              -16.933             
H              0.835               -1.853              -14.025             
H              0.728               -4.559              -15.144             
H              0.019               -3.838              -17.298             
H              -1.127              -3.657              -16.149             
H              -0.325              -1.023              -16.118             
N              2.563               -4.159              -16.93              
C              3.907               -4.164              -17.495             
C              3.961               -3.424              -18.809             
O              3.119               -3.635              -19.684             
C              4.395               -5.592              -17.694             
C              4.728               -6.289              -16.418             
C              3.744               -6.941              -15.693             
C              6.028               -6.265              -15.925             
C              4.045               -7.59               -14.492             
C              6.339               -6.901              -14.739             
C              5.346               -7.567              -14.014             
H              1.806               -4.803              -17.257             
H              4.497               -3.662              -16.847             
H              3.675               -6.099              -18.144             
H              5.212               -5.558              -18.25              
H              2.804               -6.954              -16.025             
H              6.74                -5.784              -16.436             
H              3.319               -8.063              -13.99              
H              7.292               -6.885              -14.39              
H              5.575               -8.023              -13.158             
N              4.967               -2.564              -18.946             
C              5.148               -1.757              -20.141             
C              6.414               -2.137              -20.882             
O              7.402               -2.501              -20.263             
C              5.227               -0.274              -19.785             
C              3.948               0.304               -19.255             
C              3.582               0.12                -17.933             
C              3.105               1.034               -20.082             
C              2.394               0.648               -17.441             
C              1.922               1.567               -19.603             
C              1.575               1.377               -18.285             
O              0.396               1.917               -17.814             
H              5.61                -2.521              -18.123             
H              4.362               -1.919              -20.755             
H              5.939               -0.159              -19.091             
H              5.483               0.23                -20.61              
H              4.177               -0.4                -17.318             
H              3.358               1.177               -21.038             
H              2.136               0.503               -16.486             
H              1.322               2.088               -20.213             
H              0.41                1.909               -16.816             
N              6.395               -2.012              -22.205             
C              7.618               -2.202              -22.965             
C              8.594               -1.096              -22.569             
O              8.223               0.081               -22.512             
C              7.322               -2.201              -24.476             
C              6.985               -3.599              -24.989             
C              6.036               -3.588              -26.175             
O              5.988               -2.561              -26.882             
O              5.35                -4.61               -26.409             
H              5.484               -1.781              -22.617             
H              8.018               -3.088              -22.755             
H              6.545               -1.634              -24.625             
H              8.125               -1.901              -24.935             
H              7.821               -4.028              -25.28              
H              6.547               -4.096              -24.262             
N              9.827               -1.492              -22.268             
C              10.82               -0.572              -21.724             
C              12.224              -0.962              -22.184             
O              12.441              -2.054              -22.74              
C              10.755              -0.545              -20.17              
H              10.018              -2.497              -22.451             
H              10.621              0.356               -22.057             
H              11.556              -1.012              -19.811             
H              10.744              0.403               -19.869             
H              9.925               -1.009              -19.879             
N              13.165              -0.065              -21.919             
H              12.806              0.816               -21.477             
H              14.1441             -0.214878           -22.1237            
