283
1.xyz
C              5.101               -1.742              -20.271             
C              6.41                -2.1                -20.958             
O              7.382               -2.428              -20.284             
C              5.126               -0.25               -19.946             
C              3.836               0.309               -19.421             
C              3.507               0.182               -18.073             
C              2.96                0.979               -20.267             
C              2.334               0.702               -17.587             
C              1.775               1.503               -19.782             
C              1.484               1.366               -18.438             
O              0.32                1.892               -17.944             
H              4.347               -1.96               -20.902             
H              5.841               -0.094              -19.26              
H              5.367               0.246               -20.785             
H              4.136               -0.295              -17.458             
H              3.189               1.083               -21.231             
H              2.097               0.6                 -16.615             
H              1.141               1.971               -20.391             
H              0.148               1.517               -17.034             
N              6.443               -1.978              -22.285             
C              7.702               -2.094              -23.016             
C              8.658               -1.005              -22.583             
O              8.315               0.188               -22.596             
C              7.473               -2.014              -24.535             
C              6.73                -3.223              -25.068             
C              6.353               -3.088              -26.539             
O              7.087               -2.407              -27.29              
O              5.32                -3.666              -26.943             
H              5.531               -1.8                -22.733             
H              8.11                -2.995              -22.84              
H              6.927               -1.223              -24.709             
H              8.349               -1.984              -24.964             
H              7.314               -4.009              -24.987             
H              5.894               -3.326              -24.56              
N              9.871               -1.418              -22.241             
C              10.862              -0.496              -21.733             
C              12.272              -0.89               -22.154             
O              12.49               -1.977              -22.713             
C              10.765              -0.424              -20.207             
H              10.038              -2.435              -22.368             
H              10.669              0.429               -22.096             
H              9.93                0.06                -19.952             
H              10.744              -1.35               -19.834             
H              11.559              0.064               -19.849             
N              13.217              -0.01               -21.844             
C              14.632              -0.223              -22.123             
C              15.448              0.132               -20.883             
O              15.22               1.165               -20.255             
C              15.074              0.622               -23.32              
C              16.516              0.399               -23.711             
C              16.798              1.045               -25.066             
C              16.59               2.547               -24.992             
N              16.82               3.214               -26.306             
H              12.856              0.859               -21.377             
H              14.781              -1.188              -22.34              
H              14.494              0.387               -24.095             
H              14.953              1.582               -23.082             
H              17.113              0.813               -23.031             
H              16.696              -0.577              -23.78              
H              17.739              0.864               -25.315             
H              16.173              0.668               -25.735             
H              15.649              2.732               -24.691             
H              17.225              2.932               -24.314             
H              16.414              4.127               -26.288             
H              17.803              3.286               -26.472             
H              16.396              2.672               -27.03              
N              16.374              -0.743              -20.514             
C              17.256              -0.471              -19.373             
C              18.347              0.51                -19.799             
O              19.081              0.249               -20.753             
C              17.903              -1.755              -18.836             
C              18.908              -1.409              -17.751             
C              16.84               -2.712              -18.29              
H              16.422              -1.605              -21.079             
H              16.712              -0.037              -18.656             
H              18.41               -2.174              -19.58              
H              18.508              -1.593              -16.852             
H              19.732              -1.965              -17.867             
H              19.15               -0.44               -17.814             
H              16.014              -2.633              -18.846             
H              17.19               -3.646              -18.332             
H              16.637              -2.468              -17.344             
N              18.421              1.65                -19.114             
C              19.413              2.678               -19.449             
C              20.643              2.584               -18.568             
O              21.762              2.805               -19.034             
C              18.821              4.076               -19.309             
C              17.7                4.452               -20.278             
C              17.414              5.931               -20.172             
C              18.079              4.063               -21.697             
H              17.737              1.746               -18.345             
H              19.693              2.544               -20.41              
H              18.453              4.163               -18.383             
H              19.559              4.737               -19.439             
H              16.882              3.933               -20.042             
H              18.238              6.454               -20.401             
H              16.679              6.182               -20.806             
H              17.132              6.157               -19.237             
H              18.233              3.075               -21.744             
H              17.339              4.313               -22.323             
H              18.916              4.543               -21.965             
N              20.424              2.301               -17.286             
C              21.507              2.24                -16.301             
C              21.278              1.099               -15.323             
O              20.142              0.808               -14.976             
C              21.606              3.558               -15.519             
C              21.95               4.767               -16.368             
C              23.335              4.62                -16.985             
C              23.879              5.954               -17.475             
N              23.4                7.108               -16.657             
H              19.426              2.128               -17.044             
H              22.375              2.085               -16.785             
H              20.724              3.721               -15.078             
H              22.313              3.449               -14.82              
H              21.279              4.855               -17.102             
H              21.937              5.585               -15.797             
H              23.956              4.258               -16.297             
H              23.278              3.997               -17.759             
H              24.885              5.926               -17.445             
H              23.595              6.091               -18.431             
H              24.187              7.594               -16.281             
H              22.869              7.724               -17.236             
H              22.827              6.768               -15.913             
N              22.355              0.452               -14.883             
C              22.294              -0.575              -13.844             
C              23.161              -0.153              -12.664             
O              24.314              0.258               -12.874             
C              22.788              -1.942              -14.368             
C              22.66               -3.008              -13.293             
C              22.024              -2.341              -15.638             
H              23.248              0.741               -15.344             
H              21.348              -0.642              -13.526             
H              23.757              -1.851              -14.577             
H              23.287              -2.803              -12.541             
H              21.721              -3.025              -12.947             
H              22.887              -3.902              -13.679             
H              22.671              -2.42               -16.393             
H              21.573              -3.217              -15.482             
H              21.345              -1.639              -15.841             
N              22.622              -0.242              -11.453             
C              23.411              0.07                -10.262             
C              23.181              -0.958              -9.177              
O              22.122              -1.574              -9.099              
C              23.09               1.478               -9.743              
C              23.691              2.58                -10.633             
C              23.406              3.994               -10.155             
O              22.979              4.152               -9.001              
O              23.612              4.942               -10.952             
H              21.636              -0.539              -11.427             
H              24.389              0.096               -10.506             
H              22.122              1.59                -9.755              
H              23.485              1.571               -8.857              
H              24.67               2.458               -10.643             
H              23.303              2.484               -11.536             
N              24.202              -1.157              -8.341              
C              24.096              -2.041              -7.193              
C              24.467              -1.228              -5.972              
O              25.504              -0.558              -5.959              
C              25.02               -3.255              -7.34               
C              24.899              -4.269              -6.242              
C              23.835              -5.164              -6.207              
C              25.865              -4.347              -5.245              
C              23.737              -6.115              -5.209              
C              25.773              -5.3                -4.24               
C              24.712              -6.185              -4.219              
H              25.066              -0.629              -8.584              
H              23.137              -2.286              -7.099              
H              24.796              -3.701              -8.197              
H              25.954              -2.922              -7.35               
H              23.131              -5.12               -6.914              
H              26.635              -3.709              -5.253              
H              22.959              -6.754              -5.2                
H              26.49               -5.339              -3.522              
H              24.639              -6.874              -3.501              
N              23.601              -1.248              -4.968              
C              23.842              -0.487              -3.746              
C              23.004              -1.076              -2.627              
O              21.861              -1.462              -2.856              
C              23.51               0.999               -3.946              
C              23.771              1.866               -2.7                
C              23.535              3.353               -2.982              
C              23.885              4.224               -1.77               
N              22.877              4.141               -0.674              
H              22.761              -1.834              -5.121              
H              24.809              -0.562              -3.503              
H              24.073              1.35                -4.687              
H              22.546              1.076               -4.178              
H              23.154              1.574               -1.971              
H              24.718              1.738               -2.412              
H              24.11               3.629               -3.744              
H              22.576              3.49                -3.201              
H              24.783              3.934               -1.416              
H              23.963              5.182               -2.076              
H              23.348              4.129               0.207               
H              22.272              4.935               -0.721              
H              22.342              3.304               -0.78               
N              23.573              -1.146              -1.425              
C              22.855              -1.651              -0.261              
C              22.317              -3.042              -0.543              
O              21.171              -3.371              -0.212              
C              21.736              -0.684              0.135               
C              22.275              0.665               0.559               
O              23.336              0.688               1.223               
O              21.67               1.7                 0.207               
H              24.558              -0.814              -1.391              
H              23.521              -1.736              0.486               
H              21.145              -0.561              -0.651              
H              21.239              -1.084              0.892               
N              23.166              -3.839              -1.184              
C              22.924              -5.25               -1.448              
C              21.744              -5.495              -2.378              
O              21.151              -6.579              -2.363              
C              22.703              -6.016              -0.138              
C              23.022              -7.492              -0.27               
H              24.051              -3.35               -1.492              
H              23.749              -5.612              -1.916              
H              23.295              -5.622              0.558               
H              21.748              -5.918              0.124               
O              23.958              -7.878              -0.971              
N              22.238              -8.329              0.396               
H              21.478              -7.973              0.944               
H              22.401              -9.314              0.353               
N              21.426              -4.51               -3.21               
C              20.352              -4.709              -4.183              
C              20.626              -4.01               -5.502              
O              21.226              -2.937              -5.546              
C              19.001              -4.239              -3.628              
C              18.856              -2.754              -3.389              
C              17.395              -2.349              -3.168              
O              16.52               -3.237              -2.977              
O              17.117              -1.135              -3.143              
H              21.968              -3.648              -3.116              
H              20.227              -5.702              -4.345              
H              18.303              -4.511              -4.282              
H              18.861              -4.701              -2.76               
H              19.347              -2.515              -2.577              
H              19.171              -2.273              -4.181              
N              20.127              -4.625              -6.566              
C              20.208              -4.063              -7.907              
C              19.07               -3.089              -8.15               
O              17.958              -3.286              -7.657              
C              20.156              -5.176              -8.951              
C              21.361              -6.031              -8.905              
C              21.492              -7.238              -8.285              
C              22.623              -5.734              -9.488              
N              22.773              -7.715              -8.452              
C              23.485              -6.809              -9.192              
C              23.11               -4.661              -10.24              
C              24.807              -6.84               -9.62               
C              24.431              -4.697              -10.663             
C              25.259              -5.779              -10.352             
H              19.672              -5.544              -6.36               
H              21.07               -3.548              -7.972              
H              19.37               -5.747              -8.768              
H              20.106              -4.767              -9.849              
H              20.771              -7.71               -7.783              
H              23.123              -8.577              -8.094              
H              22.529              -3.888              -10.471             
H              25.397              -7.622              -9.39               
H              24.789              -3.936              -11.196             
H              26.208              -5.767              -10.679             
N              19.341              -2.044              -8.922              
C              18.256              -1.201              -9.393              
C              18.079              0.043               -8.534              
C              19.309              0.911               -8.47               
C              19.063              2.143               -7.602              
C              20.381              2.782               -7.196              
N              20.353              3.275               -5.793              
H              20.331              -1.896              -9.142              
H              17.404              -1.719              -9.359              
H              17.329              0.581               -8.915              
H              17.846              -0.249              -7.608              
H              20.065              0.391               -8.075              
H              19.553              1.214               -9.389              
H              18.537              2.8                 -8.124              
H              18.578              1.866               -6.784              
H              21.115              2.103               -7.292              
H              20.573              3.552               -7.812              
H              20.324              2.495               -5.168              
H              21.174              3.816               -5.615              
H              19.542              3.843               -5.657              
H              4.97362             -2.31048            -19.3881            
H              18.4693             -0.931705           -10.4163            
