261
4.xyz
C              -13.986             24.719              6.015               
C              -15.227             23.815              5.939               
O              -15.39              22.912              6.754               
C              -12.799             23.932              5.471               
C              -11.546             24.784              5.247               
C              -10.358             23.92               4.849               
N              -9.819              23.22               6.017               
C              -9.766              21.927              6.231               
N              -10                 21.024              5.266               
N              -9.466              21.5                7.458               
H              -14.148             25.524              5.444               
H              -12.567             23.218              6.122               
H              -13.055             23.536              4.597               
H              -11.719             25.435              4.516               
H              -11.318             25.259              6.09                
H              -10.667             23.257              4.183               
H              -9.66               24.511              4.469               
H              -9.433              23.826              6.764               
H              -10.204             21.35               4.342               
H              -9.968              20.056              5.472               
H              -9.267              22.147              8.189               
H              -9.439              20.514              7.646               
N              -16.055             24.052              4.925               
C              -17.207             23.186              4.645               
C              -16.791             22.23               3.555               
O              -16.525             22.642              2.4                 
C              -18.415             24.002              4.25                
C              -18.901             24.881              5.418               
C              -20.118             25.689              5.139               
C              -20.517             26.522              6.378               
N              -21.708             27.374              6.186               
H              -15.822             24.889              4.356               
H              -17.428             22.674              5.467               
H              -18.174             24.601              3.504               
H              -19.152             23.393              4.005               
H              -19.071             24.269              6.214               
H              -18.134             25.496              5.682               
H              -19.945             26.325              4.396               
H              -20.883             25.095              4.921               
H              -20.679             25.879              7.145               
H              -19.724             27.1                6.633               
H              -21.56              28.264              6.62                
H              -21.873             27.507              5.207               
H              -22.507             26.934              6.599               
N              -16.661             20.957              3.919               
C              -16.034             19.965              3.057               
C              -16.956             18.769              2.858               
O              -17.896             18.527              3.62                
C              -14.662             19.51               3.638               
C              -13.772             20.713              3.942               
C              -14.83              18.651              4.879               
H              -17.043             20.736              4.863               
H              -15.874             20.386              2.158               
H              -14.204             18.977              2.934               
H              -14.34              21.529              4.04                
H              -13.272             20.549              4.791               
H              -13.125             20.844              3.192               
H              -15.499             19.076              5.489               
H              -15.15              17.742              4.612               
H              -13.951             18.572              5.349               
N              -16.653             18.007              1.803               
C              -17.268             16.717              1.525               
C              -16.257             15.654              1.953               
O              -15.12              15.678              1.45                
C              -17.563             16.565              0.023               
C              -18.538             17.615              -0.517              
C              -19.942             17.335              -0.117              
C              -20.775             18.605              -0.545              
N              -22.177             18.393              -0.16               
H              -15.916             18.431              1.179               
H              -18.086             16.618              2.073               
H              -16.706             16.652              -0.472              
H              -17.959             15.665              -0.126              
H              -18.256             18.514              -0.165              
H              -18.464             17.626              -1.52               
H              -20.303             16.582              -0.613              
H              -20.023             17.258              0.847               
H              -20.393             19.38               -0.07               
H              -20.689             18.697              -1.523              
H              -22.531             19.209              0.303               
H              -22.731             18.214              -0.976              
H              -22.245             17.609              0.461               
N              -16.643             14.779              2.858               
C              -15.719             13.848              3.498               
C              -16.108             12.404              3.257               
O              -17.283             12.069              3.131               
C              -15.7               14.108              5.001               
O              -15.02              15.322              5.213               
H              -17.665             14.804              3.082               
H              -14.802             13.997              3.097               
H              -16.625             14.189              5.323               
H              -15.214             13.377              5.445               
H              -14.934             15.494              6.195               
N              -15.093             11.551              3.303               
C              -15.338             10.101              3.324               
C              -14.197             9.488               4.139               
O              -13.051             9.942               4.032               
C              -15.457             9.513               1.897               
C              -16.018             8.096               1.947               
C              -14.195             9.651               1.114               
C              -16.477             7.625               0.574               
H              -14.155             11.971              3.322               
H              -16.163             9.968               3.848               
H              -16.093             10.083              1.388               
H              -15.314             7.484               2.276               
H              -16.795             8.084               2.56                
H              -14.343             9.371               0.162               
H              -13.882             10.605              1.122               
H              -13.475             9.074               1.509               
H              -15.7               7.637               -0.052              
H              -16.836             6.697               0.65                
H              -17.19              8.237               0.24                
N              -14.549             8.481               4.92                
C              -13.573             7.758               5.744               
C              -13.671             6.273               5.347               
O              -14.763             5.733               5.259               
C              -13.846             7.931               7.248               
C              -12.794             7.178               8.056               
C              -13.849             9.401               7.647               
H              -15.562             8.244               4.905               
H              -12.668             8.076               5.507               
H              -14.721             7.509               7.449               
H              -12.986             6.198               8.02                
H              -11.889             7.355               7.671               
H              -12.819             7.489               9.006               
H              -14.13              9.482               8.603               
H              -12.929             9.775               7.533               
H              -14.49              9.899               7.064               
N              -12.548             5.598               5.178               
C              -12.475             4.198               4.815               
C              -11.316             3.575               5.596               
O              -10.548             4.241               6.238               
C              -12.284             4.028               3.311               
O              -11.123             4.659               2.905               
C              -13.357             4.782               2.473               
H              -11.677             6.186               5.335               
H              -13.316             3.744               5.093               
H              -12.212             3.022               3.106               
H              -14.256             4.412               2.692               
H              -13.322             5.752               2.701               
H              -13.16              4.651               1.505               
H              -10.929             5.483               3.465               
N              -11.253             2.255               5.492               
C              -10.064             1.514               5.887               
C              -9.318              1.134               4.629               
O              -9.866              0.674               3.605               
C              -10.471             0.228               6.642               
C              -10.93              0.545               8.057               
C              -11.708             -0.623              8.606               
C              -9.753              0.899               8.958               
H              -12.109             1.805               5.112               
H              -9.485              2.109               6.437               
H              -11.219             -0.173              6.162               
H              -9.685              -0.344              6.697               
H              -11.51              1.356               8.037               
H              -11.129             -1.442              8.622               
H              -12.014             -0.421              9.539               
H              -12.51              -0.801              8.03                
H              -9.281              1.701               8.591               
H              -10.087             1.102               9.879               
H              -9.118              0.127               8.996               
N              -8.016              1.335               4.703               
C              -7.142              1.095               3.555               
C              -5.816              0.6                 4.128               
O              -5.146              1.347               4.836               
C              -6.972              2.4                 2.778               
C              -6.107              2.299               1.544               
O              -5.426              1.331               1.34                
O              -6.03               3.311               0.781               
H              -7.67               1.67                5.621               
H              -7.532              0.348               3.037               
H              -7.886              2.715               2.506               
H              -6.569              3.076               3.4                 
N              -5.476              -0.655              3.879               
C              -4.239              -1.165              4.428               
C              -4.236              -1.19               5.952               
O              -3.167              -1.064              6.563               
H              -6.126              -1.192              3.302               
H              -4.076              -2.106              4.083               
H              -3.463              -0.594              4.107               
N              -5.405              -1.292              6.545               
C              -5.527              -1.254              7.999               
C              -5.486              0.157               8.595               
O              -5.552              0.281               9.833               
H              -6.219              -1.4                5.909               
H              -6.4                -1.702              8.275               
H              -4.778              -1.807              8.413               
N              -5.375              1.16                7.765               
C              -5.338              2.551               8.189               
C              -6.71               3.171               7.986               
O              -7.397              2.853               7.027               
C              -4.321              3.345               7.375               
C              -2.915              2.752               7.44                
C              -1.846              3.658               6.849               
C              -0.389              3.049               6.787               
N              0.633               4.112               6.592               
H              -5.313              0.881               6.75                
H              -5.106              2.591               9.162               
H              -4.612              3.35                6.426               
H              -4.284              4.271               7.733               
H              -2.686              2.567               8.405               
H              -2.91               1.876               6.942               
H              -2.098              3.904               5.905               
H              -1.783              4.504               7.391               
H              -0.229              2.571               7.645               
H              -0.367              2.406               6.027               
H              1.435               3.722               6.14                
H              0.25                4.841               6.024               
H              0.898               4.485               7.481               
N              -7.053              4.082               8.887               
C              -8.324              4.791               8.778               
C              -8.059              6.052               7.981               
O              -7.307              6.944               8.462               
C              -8.771              4.991               10.262              
C              -10.172             5.528               10.345              
C              -11.21              4.504               9.915               
C              -10.459             6.002               11.776              
H              -6.369              4.239               9.642               
H              -8.964              4.223               8.276               
H              -8.742              4.113               10.687              
H              -8.158              5.638               10.658              
H              -10.255             6.344               9.755               
H              -11.152             3.699               10.507              
H              -12.125             4.904               9.986               
H              -11.04              4.232               8.967               
H              -9.811              6.722               12.02               
H              -11.391             6.357               11.823              
H              -10.359             5.231               12.403              
N              -8.52               6.16                6.729               
C              -8.181              7.245               5.809               
C              -9.396              8.16                5.657               
O              -10.447             7.713               5.201               
C              -7.774              6.69                4.425               
C              -7.5                7.853               3.45                
C              -6.57               5.783               4.553               
H              -9.169              5.371               6.455               
H              -7.442              7.779               6.214               
H              -8.546              6.189               4.059               
H              -8.311              8.43                3.397               
H              -6.727              8.383               3.788               
H              -7.29               7.479               2.551               
H              -6.561              5.129               3.795               
H              -5.733              6.332               4.529               
H              -6.617              5.286               5.421               
N              -9.221              9.402               6.056               
C              -10.264             10.438              5.969               
C              -10.393             11.103              7.335               
C              -11.417             12.191              7.436               
N              -12.141             12.526              6.33                
C              -11.797             12.983              8.479               
C              -12.93              13.53               6.754               
N              -12.77              13.81               8.036               
H              -8.268              9.605               6.448               
H              -11.111             10.009              5.689               
H              -10.619             10.394              8.026               
H              -9.493              11.495              7.596               
H              -11.412             12.947              9.404               
H              -13.582             14.02               6.139               
H              -13.268             14.487              8.553               
H              -9.95593            11.1453             5.18122             
H              -13.8346            25.0262             7.01731             
