305
3.xyz
C              9.105               -23.966             8.571               
C              9.335               -25.052             7.553               
O              9.645               -26.181             7.946               
C              7.914               -24.333             9.49                
O              6.717               -24.219             8.71                
C              7.839               -23.443             10.679              
H              9.931               -23.906             9.17                
H              8.015               -25.296             9.783               
H              8.708               -22.949             10.811              
H              7.104               -22.761             10.569              
H              7.651               -23.977             11.514              
H              6.455               -23.253             8.611               
N              9.162               -24.786             6.264               
C              9.272               -25.776             5.224               
C              10.491              -25.543             4.337               
O              11.4                -26.338             4.358               
C              7.948               -25.819             4.42                
C              7.897               -26.841             3.326               
C              8.574               -28.037             3.38                
C              7.056               -26.6               2.222               
C              8.444               -28.974             2.381               
C              6.897               -27.564             1.245               
C              7.588               -28.736             1.324               
H              8.935               -23.773             6.071               
H              9.412               -26.672             5.673               
H              7.22                -26.015             5.066               
H              7.823               -24.921             4.015               
H              9.173               -28.235             4.16                
H              6.579               -25.729             2.157               
H              8.976               -29.831             2.424               
H              6.261               -27.385             0.47                
H              7.481               -29.442             0.611               
N              10.442              -24.521             3.486               
C              11.547              -24.128             2.62                
C              12.021              -22.727             3.007               
O              11.277              -21.914             3.54                
C              11.082              -24.094             1.139               
C              10.524              -25.365             0.566               
C              11.458              -26.412             0.308               
C              10.732              -27.598             -0.408              
N              11.741              -28.654             -0.509              
H              9.519               -24.011             3.492               
H              12.306              -24.768             2.745               
H              10.382              -23.367             1.065               
H              11.88               -23.807             0.586               
H              9.784               -25.695             1.21                
H              10.015              -25.117             -0.3                
H              12.184              -26.124             -0.307              
H              11.84               -26.79              1.144               
H              9.989               -27.877             0.158               
H              10.459              -27.29              -1.291              
H              11.302              -29.529             -0.731              
H              12.402              -28.43              -1.23               
H              12.23               -28.747             0.363               
N              13.329              -22.464             2.826               
C              13.919              -21.123             2.92                
C              14.631              -20.832             1.591               
O              15.193              -21.737             0.951               
C              15.007              -21.038             4.028               
C              14.478              -21.279             5.418               
H              13.901              -23.319             2.608               
H              13.17               -20.476             2.995               
H              15.704              -21.723             3.818               
H              15.41               -20.124             3.983               
O              13.487              -20.628             5.848               
N              15.038              -22.243             6.132               
H              15.794              -22.772             5.728               
H              14.722              -22.445             7.052               
N              14.601              -19.558             1.209               
C              15.384              -19.082             0.072               
C              15.984              -17.716             0.385               
O              15.498              -16.986             1.256               
C              14.53               -18.981             -1.226              
O              13.398              -18.147             -0.989              
C              14.039              -20.337             -1.686              
H              13.986              -18.946             1.777               
H              16.135              -19.727             -0.092              
H              15.103              -18.554             -1.953              
H              13.932              -20.95              -0.898              
H              13.152              -20.243             -2.147              
H              14.698              -20.742             -2.326              
H              13.214              -18.073             -0.002              
N              17.013              -17.36              -0.384              
C              17.559              -16.015             -0.339              
C              18.136              -15.712             -1.724              
O              18.869              -16.534             -2.276              
C              18.652              -15.882             0.733               
C              19.241              -14.481             0.785               
C              20.211              -14.289             1.932               
O              19.906              -14.734             3.061               
O              21.283              -13.672             1.687               
H              17.376              -18.111             -0.999              
H              16.844              -15.36              -0.129              
H              18.241              -16.067             1.599               
H              19.37               -16.501             0.503               
H              19.733              -14.323             -0.052              
H              18.504              -13.84              0.907               
N              17.827              -14.522             -2.218              
C              18.403              -14.006             -3.458              
C              18.933              -12.603             -3.225              
O              18.343              -11.835             -2.466              
C              17.391              -14.043             -4.639              
C              16.16               -13.176             -4.366              
C              16.98               -15.5               -4.913              
C              15.191              -13.099             -5.543              
H              17.136              -13.982             -1.647              
H              19.193              -14.584             -3.661              
H              17.856              -13.68              -5.445              
H              15.676              -13.548             -3.578              
H              16.467              -12.252             -4.15               
H              16.382              -15.525             -5.709              
H              17.798              -16.041             -5.087              
H              16.5                -15.858             -4.117              
H              14.87               -14.018             -5.76               
H              14.419              -12.52              -5.291              
H              15.665              -12.71              -6.329              
N              20.021              -12.262             -3.926              
C              20.49               -10.889             -4.013              
C              20.594              -10.505             -5.485              
O              20.994              -11.32              -6.324              
C              21.864              -10.683             -3.346              
O              21.8                -10.844             -1.943              
H              20.494              -13.063             -4.397              
H              19.809              -10.296             -3.589              
H              22.501              -11.351             -3.725              
H              22.18               -9.759              -3.556              
H              21.218              -10.132             -1.55               
N              20.248              -9.26               -5.778              
C              20.229              -8.82               -7.161              
C              20.313              -7.305              -7.212              
O              19.946              -6.612              -6.28               
C              18.94               -9.315              -7.887              
C              17.673              -8.939              -7.173              
C              17.047              -7.719              -7.419              
C              17.093              -9.782              -6.228              
C              15.882              -7.369              -6.757              
C              15.952              -9.436              -5.548              
C              15.338              -8.206              -5.803              
H              20.006              -8.664              -4.976              
H              21.061              -9.172              -7.595              
H              18.933              -8.9                -8.779              
H              18.994              -10.296             -7.935              
H              17.442              -7.088              -8.083              
H              17.532              -10.674             -6.044              
H              15.432              -6.489              -6.98               
H              15.553              -10.064             -4.862              
H              14.521              -7.942              -5.303              
N              20.783              -6.826              -8.36               
C              20.653              -5.422              -8.713              
C              19.459              -5.286              -9.609              
O              19.243              -6.082              -10.516             
C              21.946              -5.016              -9.429              
C              22.024              -3.585              -9.746              
C              23.395              -3.153              -10.346             
C              24.484              -3.21               -9.361              
N              25.864              -2.696              -9.724              
H              21.242              -7.532              -8.97               
H              20.506              -4.892              -7.881              
H              22.709              -5.273              -8.832              
H              21.998              -5.554              -10.274             
H              21.315              -3.327              -10.42              
H              21.877              -3.024              -8.917              
H              23.585              -3.768              -11.113             
H              23.284              -2.219              -10.69              
H              24.198              -2.708              -8.493              
H              24.609              -4.192              -9.033              
H              26.036              -1.86               -9.213              
H              26.535              -3.391              -9.485              
H              25.888              -2.515              -10.702             
N              18.762              -4.243              -9.331              
C              17.594              -3.949              -10.149             
C              17.979              -3.908              -11.682             
O              18.98               -3.234              -12.005             
C              17.037              -2.616              -9.56               
C              16.289              -2.738              -8.262              
C              15.718              -1.337              -8.039              
C              15.147              -3.75               -8.43               
H              19.065              -3.666              -8.542              
H              16.915              -4.676              -10.039             
H              17.819              -2.018              -9.42               
H              16.426              -2.235              -10.244             
H              16.905              -2.952              -7.538              
H              15.118              -1.099              -8.802              
H              15.198              -1.324              -7.186              
H              16.468              -0.679              -7.984              
H              15.529              -4.637              -8.684              
H              14.651              -3.831              -7.567              
H              14.529              -3.431              -9.147              
N              17.257              -4.575              -12.654             
C              17.544              -4.435              -14.035             
C              18.739              -5.209              -14.54              
O              19.081              -4.998              -15.683             
H              16.504              -5.17               -12.248             
H              16.718              -4.711              -14.592             
H              17.683              -3.436              -14.262             
N              19.319              -6.087              -13.702             
C              20.473              -6.884              -14.093             
C              20.128              -8.356              -13.889             
O              19.757              -8.773              -12.764             
C              21.735              -6.495              -13.299             
C              22.899              -7.359              -13.715             
C              22.036              -5.003              -13.512             
H              18.871              -6.14               -12.765             
H              20.642              -6.739              -15.065             
H              21.554              -6.682              -12.339             
H              23.511              -7.505              -12.935             
H              22.566              -8.246              -14.04              
H              23.41               -6.911              -14.452             
H              22.488              -4.888              -14.394             
H              21.177              -4.496              -13.499             
H              22.632              -4.686              -12.778             
N              20.257              -9.152              -14.919             
C              19.922              -10.569             -14.838             
C              20.804              -11.274             -13.797             
O              21.998              -10.969             -13.646             
C              20.068              -11.2               -16.217             
C              19.615              -12.655             -16.314             
C              19.667              -13.14              -17.749             
O              20.804              -13.372             -18.247             
O              18.608              -13.281             -18.381             
H              20.612              -8.703              -15.789             
H              18.957              -10.678             -14.581             
H              19.517              -10.678             -16.85              
H              21.024              -11.173             -16.465             
H              20.23               -13.201             -15.791             
H              18.69               -12.708             -16.014             
N              20.219              -12.266             -13.137             
C              20.934              -13.095             -12.166             
C              20.446              -14.536             -12.302             
O              19.292              -14.79              -12.658             
C              20.779              -12.586             -10.718             
C              19.361              -12.493             -10.199             
C              18.542              -11.433             -10.59              
C              18.867              -13.42              -9.292              
C              17.252              -11.321             -10.077             
C              17.586              -13.299             -8.766              
C              16.784              -12.24              -9.152              
H              19.21               -12.405             -13.367             
H              21.895              -13.09              -12.43              
H              21.28               -13.21              -10.126             
H              21.179              -11.676             -10.676             
H              18.875              -10.759             -11.233             
H              19.443              -14.191             -9.011              
H              16.663              -10.562             -10.386             
H              17.25               -13.986             -8.104              
H              15.867              -12.134             -8.767              
N              21.333              -15.481             -11.967             
C              20.939              -16.865             -11.839             
C              20.21               -17.085             -10.512             
O              20.585              -16.499             -9.487              
C              22.17               -17.775             -11.914             
C              22.729              -17.917             -13.322             
O              21.953              -18.324             -14.201             
O              23.925              -17.649             -13.529             
H              22.297              -15.132             -11.814             
H              20.277              -17.064             -12.568             
H              22.875              -17.386             -11.329             
H              21.907              -18.675             -11.583             
N              19.208              -17.951             -10.522             
C              18.425              -18.247             -9.331              
C              18.065              -19.721             -9.34               
O              17.772              -20.284             -10.402             
C              17.175              -17.348             -9.315              
C              16.219              -17.61              -8.16               
C              14.962              -16.728             -8.206              
O              14.734              -16.034             -9.221              
O              14.183              -16.773             -7.224              
H              19.03               -18.399             -11.448             
H              18.958              -18.035             -8.513              
H              17.484              -16.415             -9.243              
H              16.684              -17.509             -10.154             
H              15.919              -18.544             -8.209              
H              16.682              -17.409             -7.318              
N              18.05               -20.314             -8.147              
C              17.549              -21.669             -7.956              
C              16.379              -21.552             -6.985              
O              16.569              -21.183             -5.823              
C              18.622              -22.628             -7.463              
O              19.66               -22.616             -8.44               
C              18.049              -24.016             -7.28               
H              18.425              -19.728             -7.37               
H              17.208              -22.009             -8.819              
H              19.002              -22.284             -6.591              
H              18.786              -24.697             -7.291              
H              17.564              -24.076             -6.403              
H              17.405              -24.223             -8.022              
H              19.392              -22.057             -9.233              
N              15.171              -21.807             -7.478              
C              13.97               -21.477             -6.727              
C              13.701              -22.471             -5.599              
O              14.354              -23.507             -5.461              
C              12.777              -21.421             -7.706              
O              12.569              -22.741             -8.213              
C              13.021              -20.452             -8.836              
H              15.163              -22.247             -8.414              
H              14.089              -20.56              -6.315              
H              11.95               -21.139             -7.194              
H              12.609              -20.798             -9.685              
H              12.614              -19.559             -8.621              
H              14.008              -20.331             -8.982              
H              11.662              -23.083             -7.942              
N              12.668              -22.155             -4.808              
H              12.162              -21.299             -5.064              
H              12.4258             -22.7448            -4.01282            
H              8.93395             -23.0154            8.14882             
