312
0.xyz
N              2.713               81.481              15.321              
C              4.185               81.547              15.092              
C              4.895               80.227              15.408              
O              4.362               79.376              16.12               
C              4.781               82.674              15.93               
C              4.292               84.05               15.519              
C              4.954               84.54               14.248              
H              2.347               82.407              15.362              
H              4.325               81.75               14.113              
H              4.535               82.528              16.888              
H              5.777               82.655              15.834              
H              3.305               84.009              15.369              
H              4.494               84.696              16.254              
H              2.288               80.982              14.57               
H              2.537               81.01               16.182              
O              4.316               84.63               13.196              
N              6.245               84.854              14.336              
H              6.76                85.177              13.521              
H              6.71                84.766              15.237              
N              6.12                80.087              14.908              
C              6.873               78.834              14.987              
C              7.199               78.351              16.411              
O              6.919               77.222              16.754              
C              8.151               78.95               14.161              
C              8.997               77.7                13.933              
C              8.13                76.469              13.72               
C              9.921               77.928              12.743              
H              6.5                 80.949              14.453              
H              6.327               78.102              14.526              
H              7.896               79.305              13.251              
H              8.743               79.632              14.609              
H              9.587               77.556              14.733              
H              7.546               76.605              12.919              
H              8.714               75.67               13.574              
H              7.557               76.319              14.527              
H              10.519              78.708              12.93               
H              10.477              77.11               12.591              
H              9.374               78.116              11.927              
N              7.775               79.193              17.265              
C              8.109               78.71               18.603              
C              6.86                78.299              19.403              
O              6.861               77.233              20.027              
C              8.962               79.751              19.375              
O              10.223              79.871              18.703              
C              9.216               79.295              20.805              
H              7.949               80.135              16.926              
H              8.702               77.897              18.513              
H              8.491               80.646              19.337              
H              9.987               79.806              21.193              
H              8.4                 79.458              21.364              
H              9.432               78.316              20.816              
H              10.331              79.133              18.028              
N              5.792               79.13               19.388              
C              4.589               78.675              20.096              
C              4.027               77.385              19.537              
O              3.555               76.573              20.298              
C              3.599               79.822              19.891              
C              4.48                81.027              19.784              
C              5.672               80.546              18.997              
H              4.779               78.586              21.091              
H              3.072               79.69               19.053              
H              2.98                79.9                20.67               
H              4.009               81.766              19.303              
H              4.755               81.343              20.692              
H              5.516               80.626              18.013              
H              6.501               81.05               19.244              
N              4.087               77.227              18.22               
C              3.587               75.983              17.591              
C              4.382               74.756              18.049              
O              3.811               73.692              18.375              
C              3.641               76.116              16.07               
C              3.232               74.859              15.343              
C              1.903               74.519              15.266              
C              4.181               74.07               14.717              
C              1.517               73.359              14.607              
C              3.807               72.925              14.047              
C              2.477               72.584              13.99               
H              4.492               78.006              17.69               
H              2.643               75.858              17.916              
H              3.02                76.835              15.804              
H              4.571               76.324              15.815              
H              1.208               75.098              15.678              
H              5.146               74.335              14.752              
H              0.549               73.097              14.587              
H              4.51                72.346              13.606              
H              2.192               71.753              13.489              
N              5.701               74.897              18.1                
C              6.552               73.806              18.535              
C              6.322               73.471              20.002              
O              6.288               72.329              20.379              
C              8.011               74.091              18.223              
C              8.254               74.14               16.711              
C              9.661               74.669              16.447              
C              8.008               72.755              16.08               
H              6.054               75.826              17.81               
H              6.336               72.987              17.986              
H              8.24                74.969              18.585              
H              8.554               73.366              18.584              
H              7.589               74.748              16.295              
H              10.33               74.062              16.876              
H              9.824               74.703              15.461              
H              9.748               75.588              16.832              
H              7.064               72.483              16.252              
H              8.172               72.812              15.098              
H              8.633               72.095              16.492              
N              6.047               74.478              20.825              
C              5.697               74.216              22.206              
C              4.373               73.435              22.316              
O              4.235               72.506              23.122              
C              5.612               75.546              22.984              
C              7.012               76.129              23.141              
C              4.991               75.346              24.352              
C              6.996               77.581              23.553              
H              6.104               75.418              20.407              
H              6.409               73.609              22.577              
H              5.07                76.177              22.447              
H              7.5                 75.601              23.828              
H              7.485               76.048              22.268              
H              4.933               76.224              24.827              
H              4.073               74.964              24.252              
H              5.553               74.717              24.888              
H              6.526               77.673              24.43               
H              7.935               77.913              23.641              
H              6.517               78.119              22.86               
N              3.409               73.828              21.501              
C              2.123               73.16               21.443              
C              2.318               71.695              21.037              
O              1.754               70.797              21.67               
C              1.187               73.877              20.475              
C              -0.116              73.119              20.168              
C              -0.9                72.857              21.452              
C              -0.957              73.894              19.158              
H              3.652               74.654              20.908              
H              1.704               73.178              22.353              
H              0.933               74.745              20.876              
H              1.663               74.001              19.618              
H              0.112               72.249              19.735              
H              -1.126              73.728              21.886              
H              -1.742              72.365              21.232              
H              -0.344              72.307              22.074              
H              -0.438              74.007              18.31               
H              -1.799              73.389              18.969              
H              -1.183              74.793              19.534              
N              3.112               71.456              20.003              
C              3.285               70.068              19.508              
C              3.98                69.199              20.539              
O              3.672               68.029              20.675              
C              4.084               70.037              18.195              
C              3.366               70.382              16.871              
C              4.242               69.925              15.696              
C              1.972               69.799              16.762              
H              3.577               72.266              19.589              
H              2.371               69.69               19.325              
H              4.849               70.685              18.288              
H              4.462               69.111              18.089              
H              3.235               71.362              16.823              
H              4.385               68.939              15.758              
H              3.781               70.146              14.839              
H              5.12                70.397              15.739              
H              1.4                 70.148              17.507              
H              1.564               70.059              15.884              
H              2.018               68.8                16.821              
N              4.95                69.759              21.251              
C              5.666               68.981              22.267              
C              4.698               68.519              23.345              
O              4.717               67.376              23.759              
C              6.809               69.799              22.883              
C              7.583               69.032              23.935              
C              8.821               69.784              24.387              
N              8.491               71.047              25.04               
C              9.359               72.027              25.316              
N              10.651              71.934              24.989              
N              8.925               73.124              25.918              
H              5.149               70.745              21.039              
H              6.071               68.176              21.828              
H              7.434               70.051              22.156              
H              6.418               70.604              23.308              
H              7.002               68.881              24.734              
H              7.874               68.152              23.561              
H              9.321               69.204              25.026              
H              9.384               69.966              23.583              
H              7.525               71.198              25.309              
H              10.979              71.121              24.508              
H              11.279              72.671              25.223              
H              7.955               73.226              26.145              
H              9.567               73.858              26.148              
N              3.835               69.412              23.803              
C              2.818               69.06               24.775              
C              1.811               68.047              24.225              
O              1.401               67.129              24.909              
C              2.093               70.344              25.224              
C              1.007               70.136              26.263              
C              1.615               70.042              27.647              
C              0.613               69.488              28.649              
N              1.116               69.683              30.035              
H              3.949               70.37               23.411              
H              3.265               68.654              25.589              
H              2.78                70.966              25.602              
H              1.681               70.762              24.412              
H              0.377               70.908              26.236              
H              0.52                69.29               26.063              
H              2.4                 69.433              27.616              
H              1.889               70.949              27.945              
H              -0.253              69.969              28.541              
H              0.487               68.515              28.477              
H              1.597               68.859              30.333              
H              1.743               70.462              30.054              
H              0.345               69.859              30.646              
N              1.388               68.245              22.984              
C              0.466               67.368              22.315              
C              1.051               65.95               22.205              
O              0.371               64.973              22.491              
C              0.098               67.923              20.932              
O              -0.476              69.24               21.079              
C              -0.904              66.997              20.212              
H              1.792               69.108              22.533              
H              -0.384              67.307              22.851              
H              0.945               68.012              20.372              
H              -0.405              66.377              19.608              
H              -1.411              66.469              20.891              
H              -1.538              67.552              19.675              
H              0.241               69.904              21.308              
N              2.32                65.859              21.826              
C              2.981               64.553              21.721              
C              3.072               63.877              23.096              
O              2.846               62.673              23.202              
C              4.352               64.673              21.074              
C              5.135               63.385              20.807              
C              4.345               62.426              19.942              
C              6.476               63.726              20.161              
H              2.788               66.754              21.618              
H              2.435               63.966              21.117              
H              4.237               65.135              20.189              
H              4.924               65.248              21.666              
H              5.346               62.948              21.686              
H              4.138               62.857              19.062              
H              4.88                61.594              19.784              
H              3.488               62.184              20.401              
H              7.001               64.313              20.776              
H              6.985               62.883              19.988              
H              6.316               64.204              19.297              
N              3.38                64.652              24.13               
C              3.384               64.135              25.495              
C              2.015               63.558              25.871              
O              1.926               62.469              26.437              
C              3.824               65.215              26.493              
C              5.318               65.493              26.441              
C              5.721               66.843              27.03               
O              4.916               67.457              27.768              
O              6.863               67.283              26.754              
H              3.612               65.633              23.889              
H              4.083               63.416              25.584              
H              3.357               66.043              26.26               
H              3.61                64.894              27.392              
H              5.782               64.796              26.963              
H              5.604               65.49               25.496              
N              0.944               64.27               25.54               
C              -0.398              63.805              25.861              
C              -0.823              62.588              25.043              
O              -1.553              61.73               25.542              
C              -1.406              64.932              25.674              
C              -1.293              65.996              26.736              
C              -2.168              67.19               26.426              
H              1.142               65.159              25.048              
H              -0.409              63.535              26.84               
H              -1.252              65.356              24.784              
H              -2.328              64.548              25.709              
H              -1.578              65.613              27.612              
H              -0.345              66.302              26.791              
O              -2.126              67.734              25.316              
N              -2.975              67.599              27.398              
H              -3.584              68.405              27.269              
H              -2.978              67.091              28.282              
N              -0.383              62.514              23.789              
C              -0.689              61.353              22.953              
C              0.008               60.13               23.545              
O              -0.598              59.069              23.731              
C              -0.244              61.563              21.496              
C              -1.057              62.548              20.648              
C              -0.341              62.846              19.341              
C              -2.464              62.028              20.378              
H              0.175               63.321              23.469              
H              -1.673              61.196              22.971              
H              0.7                 61.894              21.513              
H              -0.279              60.676              21.038              
H              -1.177              63.396              21.164              
H              -0.22               61.998              18.824              
H              -0.884              63.489              18.8                
H              0.555               63.248              19.533              
H              -2.941              61.891              21.246              
H              -2.965              62.693              19.824              
H              -2.41               61.159              19.886              
N              1.275               60.286              23.884              
C              2.05                59.155              24.428              
C              1.469               58.689              25.767              
O              1.51                57.501              26.112              
C              3.518               59.548              24.564              
C              4.41                58.402              25.005              
C              5.812               58.522              24.46               
H              1.668               61.226              23.744              
H              1.975               58.393              23.779              
H              3.847               59.877              23.679              
H              3.594               60.281              25.241              
H              4.453               58.396              26.004              
H              4.011               57.544              24.683              
O              6.405               57.528              24.026              
N              6.346               59.732              24.464              
H              7.295               59.891              24.125              
H              5.793               60.516              24.813              
N              0.879               59.616              26.512              
H              0.954               60.585              26.145              
H              0.396755            59.3801             27.3696             
