176
5.xyz
C              -8.612              41.509              16.344              
O              -8.655              42.329              17.271              
N              -8.48               40.194              16.542              
C              -8.495              39.628              17.877              
C              -7.085              39.584              18.438              
O              -6.528              38.515              18.699              
C              -9.118              38.224              17.83               
C              -9.46               37.682              19.203              
O              -9.558              38.465              20.173              
O              -9.659              36.445              19.303              
H              -8.369              39.635              15.676              
H              -9.026              40.249              18.461              
H              -9.95               38.279              17.289              
H              -8.463              37.615              17.397              
N              -6.473              40.746              18.598              
C              -5.137              40.815              19.183              
C              -5.077              42.041              20.085              
O              -5.844              42.999              19.909              
C              -4.01               40.959              18.142              
O              -4.213              42.15               17.378              
C              -3.944              39.787              17.197              
H              -7.004              41.575              18.284              
H              -4.991              40.004              19.742              
H              -3.119              41.041              18.633              
H              -4.609              39.903              16.452              
H              -3.024              39.713              16.799              
H              -4.154              38.934              17.686              
H              -4.87               41.983              16.634              
N              -4.169              41.989              21.057              
C              -3.921              43.129              21.944              
C              -3.516              44.37               21.133              
O              -3.909              45.481              21.47               
C              -2.844              42.775              23.008              
C              -2.706              43.875              24.057              
C              -1.492              42.467              22.365              
C              -3.985              44.205              24.793              
H              -3.66               41.088              21.132              
H              -4.799              43.347              22.375              
H              -3.139              41.939              23.466              
H              -2.012              43.593              24.723              
H              -2.377              44.705              23.599              
H              -0.853              42.164              23.069              
H              -1.606              41.747              21.684              
H              -1.14               43.29               21.925              
H              -4.314              43.39               25.268              
H              -3.808              44.93               25.457              
H              -4.675              44.512              24.138              
N              -2.752              44.165              20.066              
C              -2.239              45.244              19.238              
C              -3.369              46.001              18.525              
O              -3.462              47.234              18.62               
C              -1.231              44.72               18.233              
C              -0.031              44.051              18.871              
C              0.898               44.784              19.572              
C              0.13                42.692              18.775              
C              1.994               44.184              20.154              
C              1.226               42.077              19.355              
C              2.146               42.819              20.052              
H              -2.551              43.153              19.873              
H              -1.796              45.909              19.854              
H              -1.679              44.048              17.664              
H              -0.898              45.482              17.7                
H              0.78                45.777              19.666              
H              -0.544              42.138              18.286              
H              2.671               44.743              20.644              
H              1.341               41.07               19.257              
H              2.932               42.372              20.49               
N              -4.218              45.267              17.832              
C              -5.372              45.853              17.148              
C              -6.281              46.59               18.136              
O              -6.687              47.74               17.873              
C              -6.127              44.773              16.362              
C              -7.149              45.291              15.393              
C              -8.399              45.667              15.83               
C              -6.879              45.343              14.032              
C              -9.341              46.178              14.952              
C              -7.817              45.831              13.139              
C              -9.042              46.258              13.6                
O              -9.989              46.742              12.706              
H              -4.005              44.248              17.81               
H              -5.035              46.522              16.477              
H              -5.451              44.234              15.854              
H              -6.59               44.179              17.024              
H              -8.64               45.571              16.801              
H              -5.995              45.025              13.693              
H              -10.23              46.489              15.289              
H              -7.604              45.872              12.16               
H              -9.613              47.537              12.239              
N              -6.623              45.958              19.258              
C              -7.48               46.556              20.269              
C              -6.87               47.849              20.854              
O              -7.573              48.822              21.069              
C              -7.779              45.549              21.385              
C              -8.797              44.496              20.984              
C              -9.374              43.799              22.214              
N              -8.344              43.062              22.939              
C              -7.921              41.835              22.628              
N              -8.44               41.172              21.59               
N              -6.971              41.259              23.358              
H              -6.221              44.996              19.346              
H              -8.369              46.792              19.853              
H              -6.933              45.089              21.622              
H              -8.138              46.047              22.164              
H              -9.547              44.925              20.493              
H              -8.36               43.806              20.418              
H              -9.763              44.495              22.806              
H              -10.078             43.169              21.906              
H              -7.917              43.512              23.737              
H              -9.139              41.599              21.023              
H              -8.122              40.246              21.385              
H              -6.565              41.759              24.126              
H              -6.663              40.335              23.143              
N              -5.57               47.823              21.111              
C              -4.855              49.006              21.576              
C              -4.879              50.133              20.56               
O              -5.032              51.291              20.94               
C              -3.413              48.654              21.908              
H              -5.111              46.903              20.955              
H              -5.292              49.332              22.431              
H              -3.305              48.585              22.9                
H              -3.177              47.779              21.486              
H              -2.805              49.366              21.557              
N              -4.704              49.811              19.284              
C              -4.74               50.828              18.228              
C              -6.11               51.471              18.077              
O              -6.181              52.659              17.826              
C              -4.298              50.262              16.899              
H              -4.544              48.805              19.101              
H              -4.066              51.551              18.457              
H              -3.572              50.832              16.511              
H              -3.952              49.331              17.025              
H              -5.072              50.241              16.264              
N              -7.176              50.688              18.188              
C              -8.527              51.25               18.134              
C              -8.73               52.228              19.281              
O              -9.275              53.329              19.078              
C              -9.593              50.152              18.157              
C              -10.959             50.759              18.383              
C              -9.516              49.339              16.877              
H              -6.978              49.683              18.311              
H              -8.619              51.755              17.273              
H              -9.403              49.559              18.934              
H              -10.866             51.636              18.858              
H              -11.414             50.908              17.503              
H              -11.517             50.141              18.94               
H              -10.431             49.016              16.634              
H              -9.157              49.913              16.141              
H              -8.91               48.555              17.017              
N              -8.245              51.868              20.466              
C              -8.356              52.746              21.624              
C              -7.543              54.02               21.446              
O              -8.009              55.111              21.771              
C              -7.898              52.05               22.892              
C              -8.293              52.822              24.138              
C              -7.903              52.076              25.395              
N              -8.733              50.894              25.606              
C              -8.559              50.039              26.606              
N              -7.579              50.241              27.494              
N              -9.363              48.982              26.725              
H              -7.795              50.936              20.491              
H              -9.327              52.998              21.749              
H              -8.323              51.159              22.935              
H              -6.912              51.978              22.875              
H              -7.831              53.706              24.141              
H              -9.281              52.954              24.147              
H              -6.95               51.797              25.31               
H              -8.009              52.694              26.17               
H              -9.478              50.718              24.956              
H              -6.987              51.036              27.43               
H              -7.444              49.576              28.236              
H              -10.107             48.853              26.066              
H              -9.225              48.328              27.463              
N              -6.325              53.873              20.936              
H              -6.047              52.901              20.728              
H              -8.64899            41.8384             15.3368             
H              -5.72896            54.6772             20.7716             
