364
3.xyz
C              -16.62              1.532               -49.158             
C              -15.56              2.492               -48.632             
O              -14.96              3.251               -49.401             
C              -15.932             0.338               -49.829             
C              -16.811             -0.873              -49.951             
C              -17.76              -0.956              -50.96              
C              -16.696             -1.926              -49.057             
C              -18.573             -2.069              -51.076             
C              -17.505             -3.042              -49.168             
C              -18.448             -3.112              -50.178             
H              -17.172             1.243               -48.363             
H              -15.664             0.617               -50.738             
H              -15.148             0.095               -49.279             
H              -17.858             -0.207              -51.611             
H              -16.017             -1.877              -48.321             
H              -19.256             -2.112              -51.818             
H              -17.404             -3.804              -48.507             
H              -19.039             -3.915              -50.261             
N              -15.342             2.45                -47.32              
C              -14.218             3.138               -46.694             
C              -12.984             2.239               -46.727             
O              -13.098             1.013               -46.672             
C              -14.529             3.471               -45.233             
C              -15.646             4.467               -45.023             
C              -15.458             5.816               -45.297             
C              -16.881             4.065               -44.522             
C              -16.474             6.737               -45.094             
C              -17.901             4.977               -44.316             
C              -17.69              6.312               -44.606             
O              -18.699             7.22                -44.398             
H              -16.038             1.888               -46.784             
H              -14.016             3.963               -47.224             
H              -14.777             2.62                -44.765             
H              -13.697             3.843               -44.814             
H              -14.573             6.131               -45.647             
H              -17.032             3.1                 -44.309             
H              -16.322             7.706               -45.303             
H              -18.785             4.674               -43.96              
H              -18.37              7.945               -43.795             
N              -11.808             2.852               -46.82              
C              -10.549             2.143               -46.595             
C              -10.223             2.275               -45.111             
O              -10.055             3.388               -44.614             
C              -9.43               2.738               -47.453             
C              -8.125              2.011               -47.327             
C              -6.977              2.482               -46.757             
C              -7.834              0.677               -47.771             
N              -5.987              1.529               -46.824             
C              -6.486              0.41                -47.439             
C              -8.578              -0.316              -48.414             
C              -5.869              -0.812              -47.727             
C              -7.965              -1.525              -48.705             
C              -6.623              -1.764              -48.359             
H              -11.859             3.861               -47.062             
H              -10.702             1.183               -46.786             
H              -9.7                2.697               -48.407             
H              -9.274              3.677               -47.172             
H              -6.868              3.387               -46.349             
H              -5.055              1.634               -46.48              
H              -9.532              -0.165              -48.661             
H              -4.911              -0.966              -47.474             
H              -8.486              -2.235              -49.168             
H              -6.223              -2.652              -48.584             
N              -10.15              1.148               -44.402             
C              -10.045             1.167               -42.941             
C              -9.002              0.244               -42.341             
O              -8.428              -0.594              -43.036             
H              -10.173             0.277               -44.962             
H              -9.855              2.131               -42.638             
H              -10.965             0.938               -42.543             
N              -8.764              0.405               -41.038             
C              -7.81               -0.428              -40.298             
C              -8.39               -0.938              -38.976             
O              -8.976              -0.177              -38.201             
C              -6.508              0.335               -40.026             
C              -5.512              -0.446              -39.177             
C              -4.103              0.118               -39.229             
O              -3.922              1.304               -38.898             
O              -3.174              -0.629              -39.601             
H              -9.313              1.172               -40.591             
H              -7.538              -1.216              -40.87              
H              -6.083              0.518               -40.891             
H              -6.737              1.154               -39.538             
H              -5.813              -0.41               -38.24              
H              -5.475              -1.37               -39.516             
N              -8.195              -2.23               -38.724             
C              -8.654              -2.876              -37.499             
C              -7.74               -4.051              -37.155             
O              -7.493              -4.921              -37.993             
C              -10.093             -3.371              -37.659             
C              -10.7               -4.147              -36.486             
C              -10.789             -3.279              -35.241             
C              -12.075             -4.682              -36.861             
H              -7.684              -2.742              -39.48              
H              -8.611              -2.212              -36.749             
H              -10.675             -2.573              -37.818             
H              -10.123             -3.97               -38.458             
H              -10.126             -4.946              -36.295             
H              -11.365             -2.483              -35.428             
H              -11.188             -3.808              -34.491             
H              -9.873              -2.972              -34.98              
H              -11.992             -5.294              -37.649             
H              -12.46              -5.186              -36.087             
H              -12.679             -3.919              -37.094             
N              -7.251              -4.063              -35.918             
C              -6.396              -5.14               -35.404             
C              -5.235              -5.499              -36.344             
O              -5.084              -6.651              -36.751             
C              -7.252              -6.369              -35.066             
C              -8.101              -6.165              -33.817             
C              -8.798              -7.44               -33.376             
N              -10.082             -7.6                -34.045             
C              -11.24              -7.091              -33.619             
N              -11.311             -6.377              -32.498             
N              -12.346             -7.303              -34.323             
H              -7.527              -3.237              -35.337             
H              -6.006              -4.846              -34.514             
H              -7.858              -6.543              -35.827             
H              -6.647              -7.134              -34.906             
H              -7.517              -5.853              -33.068             
H              -8.801              -5.475              -34.003             
H              -8.209              -8.209              -33.602             
H              -8.941              -7.389              -32.393             
H              -10.102             -8.14               -34.902             
H              -10.484             -6.196              -31.967             
H              -12.193             -6.021              -32.188             
H              -12.302             -7.825              -35.177             
H              -13.221             -6.942              -34.003             
N              -4.442              -4.487              -36.696             
C              -3.231              -4.671              -37.501             
C              -3.439              -5.01               -38.971             
O              -2.499              -5.422              -39.654             
H              -4.756              -3.553              -36.35              
H              -2.659              -3.817              -37.434             
H              -2.657              -5.408              -37.067             
N              -4.66               -4.823              -39.463             
C              -5.023              -5.198              -40.826             
C              -5.805              -4.068              -41.479             
O              -6.593              -3.392              -40.819             
C              -5.839              -6.497              -40.798             
C              -6.58               -6.84               -42.079             
C              -6.202              -8.215              -42.576             
N              -6.871              -8.509              -43.842             
C              -7.871              -9.374              -44.009             
N              -8.371              -10.083             -42.997             
N              -8.376              -9.536              -45.222             
H              -5.333              -4.387              -38.794             
H              -4.185              -5.357              -41.353             
H              -5.212              -7.251              -40.591             
H              -6.514              -6.422              -40.06              
H              -7.561              -6.825              -41.908             
H              -6.346              -6.176              -42.784             
H              -5.22               -8.241              -42.712             
H              -6.481              -8.882              -41.896             
H              -6.547              -8.012              -44.667             
H              -8                  -9.951              -42.076             
H              -9.106              -10.735             -43.157             
H              -8.029              -9.006              -45.995             
H              -9.118              -10.198             -45.371             
N              -5.573              -3.861              -42.773             
C              -6.312              -2.867              -43.543             
C              -7.171              -3.544              -44.6               
O              -6.838              -4.625              -45.09              
C              -5.367              -1.873              -44.213             
C              -4.434              -1.144              -43.253             
C              -4.143              0.274               -43.731             
N              -2.719              0.62                -43.656             
C              -2.155              1.468               -42.794             
N              -2.865              2.099               -41.868             
N              -0.844              1.682               -42.86              
H              -4.828              -4.463              -43.181             
H              -6.912              -2.354              -42.92              
H              -4.804              -2.369              -44.87              
H              -5.916              -1.188              -44.686             
H              -4.86               -1.088              -42.355             
H              -3.57               -1.634              -43.195             
H              -4.449              0.35                -44.679             
H              -4.664              0.906               -43.158             
H              -2.099              0.168               -44.329             
H              -3.849              1.927               -41.792             
H              -2.421              2.743               -41.247             
H              -0.289              1.196               -43.535             
H              -0.411              2.329               -42.232             
N              -8.273              -2.893              -44.957             
C              -9.199              -3.448              -45.929             
C              -10.417             -2.574              -46.137             
O              -10.607             -1.575              -45.44              
H              -8.408              -1.976              -44.49              
H              -8.72               -3.572              -46.816             
H              -9.496              -4.369              -45.621             
N              -11.25              -2.965              -47.096             
C              -12.45              -2.213              -47.416             
C              -13.525             -2.445              -46.362             
O              -13.677             -3.553              -45.84              
C              -12.968             -2.572              -48.811             
C              -12.067             -2.082              -49.922             
C              -12.008             -0.728              -50.248             
C              -11.265             -2.967              -50.641             
C              -11.179             -0.272              -51.261             
C              -10.429             -2.519              -51.654             
C              -10.39              -1.172              -51.958             
O              -9.571              -0.726              -52.965             
H              -10.97              -3.839              -47.585             
H              -12.222             -1.233              -47.418             
H              -13.033             -3.561              -48.875             
H              -13.862             -2.155              -48.929             
H              -12.574             -0.074              -49.743             
H              -11.293             -3.941              -50.421             
H              -11.149             0.704               -51.487             
H              -9.86               -3.167              -52.159             
H              -10.034             0.003               -53.467             
N              -14.259             -1.378              -46.062             
C              -15.292             -1.382              -45.039             
C              -16.551             -0.765              -45.644             
O              -16.515             0.371               -46.109             
C              -14.858             -0.552              -43.814             
C              -15.952             -0.523              -42.755             
C              -13.565             -1.105              -43.225             
H              -14.026             -0.527              -46.632             
H              -15.498             -2.326              -44.8               
H              -14.722             0.388               -44.118             
H              -15.544             -0.648              -41.851             
H              -16.425             0.357               -42.788             
H              -16.606             -1.259              -42.93              
H              -13.06              -0.363              -42.786             
H              -13.786             -1.808              -42.55              
H              -13.013             -1.501              -43.958             
N              -17.674             -1.503              -45.627             
C              -18.911             -0.969              -46.201             
C              -19.532             0.1                 -45.306             
O              -19.674             -0.105              -44.099             
C              -19.814             -2.201              -46.311             
C              -19.309             -3.14               -45.271             
C              -17.853             -2.851              -45.063             
H              -18.746             -0.605              -47.129             
H              -20.772             -1.952              -46.138             
H              -19.748             -2.607              -47.227             
H              -19.827             -3.02               -44.405             
H              -19.446             -4.102              -45.568             
H              -17.611             -2.858              -44.089             
H              -17.272             -3.513              -45.546             
N              -19.902             1.229               -45.903             
C              -20.398             2.382               -45.148             
C              -21.709             2.082               -44.422             
O              -21.946             2.597               -43.331             
C              -20.583             3.592               -46.072             
C              -21.878             3.583               -46.823             
N              -23.023             4.189               -46.35              
C              -22.201             3.062               -48.03              
C              -23.997             4.032               -47.228             
N              -23.526             3.347               -48.253             
H              -19.811             1.224               -46.939             
H              -19.704             2.63                -44.455             
H              -20.542             4.432               -45.521             
H              -19.83              3.609               -46.739             
H              -21.593             2.564               -48.642             
H              -24.929             4.37                -47.133             
H              -24.049             3.079               -49.065             
N              -22.554             1.248               -45.029             
C              -23.858             0.912               -44.451             
C              -23.808             0.025               -43.199             
O              -24.834             -0.193              -42.564             
C              -24.77              0.274               -45.507             
C              -24.262             -1.075              -46.001             
H              -22.214             0.864               -45.931             
H              -24.294             1.791               -44.169             
H              -25.673             0.143               -45.105             
H              -24.83              0.894               -46.286             
O              -23.099             -1.43               -45.814             
N              -25.141             -1.832              -46.646             
H              -26.076             -1.504              -46.789             
H              -24.871             -2.732              -46.991             
N              -22.627             -0.492              -42.859             
C              -22.453             -1.324              -41.667             
C              -21.841             -0.55               -40.496             
O              -21.739             -1.088              -39.392             
C              -21.552             -2.518              -41.988             
C              -22.067             -3.428              -43.092             
S              -23.474             -4.422              -42.59              
C              -22.77              -6.051              -42.422             
H              -21.848             -0.256              -43.507             
H              -23.365             -1.652              -41.378             
H              -20.639             -2.175              -42.259             
H              -21.433             -3.072              -41.149             
H              -22.302             -2.845              -43.907             
H              -21.29              -4.025              -43.407             
H              -22.642             -6.461              -43.328             
H              -21.882             -5.992              -41.96              
H              -23.383             -6.632              -41.882             
N              -21.433             0.697               -40.735             
C              -20.67              1.47                -39.753             
C              -21.213             2.89                -39.591             
O              -21.868             3.417               -40.487             
C              -19.171             1.556               -40.128             
C              -18.541             0.172               -40.147             
C              -18.97              2.253               -41.468             
H              -21.701             1.069               -41.669             
H              -20.749             1.005               -38.86              
H              -18.713             2.077               -39.414             
H              -19.259             -0.523              -40.099             
H              -18.02              0.053               -40.992             
H              -17.929             0.072               -39.362             
H              -19.631             2.998               -41.554             
H              -18.041             2.62                -41.512             
H              -19.107             1.593               -42.206             
N              -20.918             3.501               -38.445             
C              -21.384             4.849               -38.14              
C              -20.214             5.717               -37.669             
O              -19.437             5.295               -36.804             
C              -22.477             4.786               -37.07              
O              -23.563             5.66                -37.393             
H              -20.332             2.938               -37.793             
H              -21.746             5.255               -38.983             
H              -22.822             3.856               -37.014             
H              -22.092             5.066               -36.198             
H              -23.435             6.528               -36.92              
N              -20.093             6.92                -38.241             
C              -18.998             7.837               -37.906             
C              -19.175             8.339               -36.478             
O              -20.283             8.488               -35.982             
C              -18.878             9.053               -38.867             
C              -17.435             9.336               -39.287             
C              -17.305             10.577              -40.178             
O              -18.366             11.076              -40.551             
O              -16.191             11.087              -40.502             
H              -20.833             7.145               -38.935             
H              -18.123             7.36                -37.989             
H              -19.388             8.839               -39.671             
H              -19.211             9.835               -38.389             
H              -16.905             9.5                 -38.478             
H              -17.107             8.57                -39.804             
N              -18.067             8.637               -35.827             
C              -18.094             9.054               -34.443             
C              -18.142             10.561              -34.463             
O              -17.312             11.203              -35.104             
C              -16.838             8.555               -33.727             
C              -16.754             9.117               -32.324             
C              -16.792             7.033               -33.726             
H              -17.193             8.547               -36.385             
H              -18.931             8.721               -34.029             
H              -16.044             8.897               -34.227             
H              -15.949             8.746               -31.859             
H              -16.681             10.115              -32.363             
H              -17.576             8.867               -31.81              
H              -16.29              6.719               -32.92              
H              -17.725             6.675               -33.702             
H              -16.331             6.717               -34.555             
N              -19.098             11.095              -33.708             
C              -19.774             12.333              -34.051             
C              -20.01              13.174              -32.802             
O              -21.121             13.631              -32.521             
C              -21.104             11.962              -34.723             
C              -21.764             13.052              -35.553             
C              -23.111             12.623              -36.113             
O              -23.424             11.411              -36.088             
O              -23.866             13.501              -36.582             
O              -19.08              13.415              -32.031             
H              -19.319             10.543              -32.845             
H              -19.218             12.857              -34.705             
H              -20.928             11.193              -35.325             
H              -21.739             11.706              -34.005             
H              -21.918             13.83               -34.975             
H              -21.18              13.259              -36.314             
H              -17.286             2.00586             -49.84              
