160
1.xyz
C              -18.459             15.684              -1.888              
C              -18.357             14.347              -1.176              
O              -17.383             13.609              -1.354              
C              -18.947             15.478              -3.325              
O              -20.193             14.796              -3.342              
H              -19.134             16.246              -1.398              
H              -19.058             16.366              -3.757              
H              -18.275             14.935              -3.817              
H              -20.84              15.301              -3.911              
N              -19.373             14.042              -0.358              
C              -19.542             12.772              0.354               
C              -20.037             11.673              -0.558              
O              -20.142             10.522              -0.13               
C              -20.589             13.101              1.414               
C              -21.367             14.227              0.83                
C              -20.366             15.043              0.066               
H              -18.677             12.505              0.809               
H              -21.179             12.307              1.588               
H              -20.15              13.373              2.274               
H              -22.088             13.881              0.22                
H              -21.797             14.774              1.556               
H              -20.781             15.484              -0.73               
H              -19.938             15.738              0.645               
N              -20.333             12.048              -1.801              
C              -20.813             11.126              -2.819              
C              -19.634             10.703              -3.665              
O              -18.997             11.539              -4.309              
C              -21.885             11.79               -3.679              
C              -22.953             12.468              -2.848              
O              -23.007             13.695              -2.78               
N              -23.809             11.676              -2.21               
H              -20.189             13.072              -1.982              
H              -21.148             10.313              -2.348              
H              -21.448             12.474              -4.256              
H              -22.315             11.09               -4.242              
H              -23.717             10.681              -2.293              
H              -24.536             12.067              -1.652              
N              -19.337             9.399               -3.676              
C              -18.157             8.954               -4.418              
C              -18.302             9.19                -5.914              
O              -17.299             9.178               -6.622              
C              -18.079             7.457               -4.091              
C              -19.474             7.077               -3.719              
C              -20.037             8.281               -3.02               
H              -17.323             9.404               -4.064              
H              -17.765             6.938               -4.891              
H              -17.446             7.295               -3.33               
H              -20.01              6.855               -4.54               
H              -19.471             6.277               -3.111              
H              -21.023             8.357               -3.156              
H              -19.834             8.266               -2.041              
N              -19.533             9.397               -6.374              
C              -19.805             9.673               -7.78               
C              -19.957             11.17               -8.054              
O              -20.162             11.572              -9.197              
C              -21.07              8.946               -8.228              
C              -22.299             9.402               -7.467              
O              -22.218             9.567               -6.234              
O              -23.352             9.601               -8.106              
H              -20.28              9.345               -5.648              
H              -19.003             9.359               -8.308              
H              -21.206             9.13                -9.194              
H              -20.94              7.975               -8.072              
N              -19.868             11.987              -7.007              
C              -20.149             13.412              -7.105              
C              -19.34              14.149              -8.159              
O              -19.757             15.18               -8.688              
H              -19.582             11.52               -6.119              
H              -21.146             13.543              -7.299              
H              -19.984             13.848              -6.194              
N              -18.171             13.612              -8.474              
C              -17.275             14.265              -9.41               
C              -17.842             14.314              -10.831             
O              -17.569             15.247              -11.589             
C              -15.936             13.528              -9.413              
S              -14.512             14.543              -9.786              
H              -17.96              12.712              -8.006              
H              -17.131             15.22               -9.103              
H              -15.811             13.118              -8.505              
H              -15.995             12.792              -10.094             
H              -14.306             15.143              -9.009              
N              -18.643             13.319              -11.188             
C              -19.237             13.281              -12.517             
C              -20.661             13.827              -12.537             
O              -21.141             14.277              -13.573             
C              -19.212             11.86               -13.069             
C              -17.828             11.439              -13.519             
O              -16.868             12.215              -13.322             
O              -17.701             10.335              -14.09              
H              -18.803             12.599              -10.465             
H              -18.682             13.885              -13.111             
H              -19.515             11.244              -12.351             
H              -19.827             11.819              -13.847             
N              -21.33              13.793              -11.389             
C              -22.744             14.15               -11.324             
C              -23.043             15.465              -10.58              
O              -24.124             16.03               -10.746             
C              -23.55              12.993              -10.716             
C              -23.683             11.76               -11.618             
C              -24.536             12.032              -12.863             
O              -25.194             13.099              -12.919             
O              -24.55              11.186              -13.79              
H              -20.775             13.499              -10.566             
H              -23.122             14.216              -12.271             
H              -23.09              12.707              -9.893              
H              -24.46              13.323              -10.533             
H              -22.789             11.507              -11.925             
H              -24.127             11.052              -11.108             
N              -22.116             15.952              -9.76               
C              -22.34              17.229              -9.078              
C              -21.518             18.348              -9.708              
O              -20.332             18.184              -10.012             
C              -22.023             17.138              -7.588              
C              -22.832             16.111              -6.845              
C              -22.324             15.902              -5.447              
O              -21.458             16.691              -5.017              
O              -22.777             14.949              -4.779              
H              -21.27              15.382              -9.652              
H              -23.319             17.466              -9.121              
H              -21.07              16.896              -7.502              
H              -22.211             18.021              -7.189              
H              -23.759             16.43               -6.783              
H              -22.763             15.254              -7.32               
N              -22.169             19.492              -9.883              
C              -21.561             20.644              -10.521             
C              -20.453             21.26               -9.665              
O              -20.584             21.373              -8.444              
C              -22.649             21.682              -10.817             
C              -22.815             22.2                -12.245             
C              -22.498             21.097              -13.24              
C              -24.241             22.693              -12.42              
H              -23.151             19.488              -9.523              
H              -21.152             20.352              -11.399             
H              -23.534             21.28               -10.542             
H              -22.473             22.482              -10.229             
H              -22.191             22.966              -12.387             
H              -23.12              20.326              -13.097             
H              -22.609             21.444              -14.172             
H              -21.554             20.789              -13.111             
H              -24.424             23.43               -11.768             
H              -24.366             23.036              -13.352             
H              -24.88              21.94               -12.256             
N              -19.346             21.65               -10.315             
C              -18.251             22.405              -9.697              
C              -18.481             23.915              -9.791              
O              -18.843             24.39               -10.875             
C              -17.025             21.996              -10.525             
C              -17.571             21.25               -11.752             
C              -19.059             21.321              -11.721             
H              -18.122             22.125              -8.736              
H              -16.503             22.801              -10.821             
H              -16.419             21.392              -10.001             
H              -17.193             21.676              -12.592             
H              -17.241             20.291              -11.728             
H              -19.411             22.037              -12.325             
H              -19.48              20.446              -11.967             
N              -18.273             24.653              -8.699              
H              -18.017             24.125              -7.852              
H              -18.3681            25.664              -8.72953            
H              -17.5295            16.1892             -1.86325            
