369
6.xyz
C              12.358              -0.16               4.341               
O              12.045              -0.914              3.411               
N              13.343              -0.405              5.213               
C              14.183              -1.617              5.143               
C              13.39               -2.845              5.51                
O              13.498              -3.864              4.824               
C              15.484              -1.51               5.971               
C              16.242              -2.825              5.976               
C              16.363              -0.401              5.422               
H              13.468              0.327               5.942               
H              14.499              -1.71               4.192               
H              15.224              -1.316              6.914               
H              16.431              -3.1                6.919               
H              15.692              -3.531              5.529               
H              17.106              -2.717              5.483               
H              16.21               0.436               5.949               
H              17.323              -0.672              5.495               
H              16.133              -0.239              4.462               
N              12.581              -2.735              6.575               
C              11.667              -3.803              6.977               
C              10.691              -4.152              5.862               
O              10.421              -5.325              5.612               
C              10.919              -3.39               8.254               
C              11.581              -3.802              9.572               
C              11.066              -5.162              10.014              
C              13.106              -3.759              9.56                
H              12.663              -1.83               7.083               
H              12.211              -4.624              7.193               
H              10.845              -2.399              8.255               
H              10.02               -3.809              8.228               
H              11.365              -3.121              10.269              
H              11.278              -5.845              9.314               
H              11.504              -5.423              10.875              
H              10.075              -5.119              10.145              
H              13.411              -2.827              9.362               
H              13.454              -4.041              10.454              
H              13.451              -4.38               8.856               
N              10.218              -3.137              5.149               
C              9.301               -3.329              4.029               
C              9.98                -4.016              2.846               
O              9.436               -4.97               2.292               
C              8.725               -1.988              3.598               
C              8.013               -1.337              4.773               
S              7.6                 0.383               4.474               
C              6.058               0.171               3.59                
H              10.554              -2.198              5.454               
H              8.545               -3.922              4.34                
H              9.46                -1.392              3.303               
H              8.069               -2.13               2.869               
H              7.17                -1.886              4.983               
H              8.609               -1.432              5.605               
H              6.125               -0.622              2.982               
H              5.313               0.026               4.243               
H              5.867               0.99                3.046               
N              11.164              -3.533              2.486               
C              11.975              -4.176              1.423               
C              12.275              -5.631              1.765               
O              12.183              -6.499              0.897               
C              13.262              -3.393              1.165               
H              11.474              -2.688              2.994               
H              11.451              -4.143              0.566               
H              13.119              -2.763              0.403               
H              13.506              -2.877              1.985               
H              13.997              -4.03               0.94                
N              12.627              -5.894              3.021               
C              12.957              -7.251              3.442               
C              11.762              -8.183              3.271               
O              11.935              -9.334              2.866               
C              13.487              -7.265              4.886               
C              14.957              -6.875              4.922               
C              15.509              -6.681              6.319               
O              14.724              -6.581              7.283               
O              16.748              -6.603              6.431               
H              12.645              -5.075              3.653               
H              13.731              -7.596              2.897               
H              12.989              -6.602              5.389               
H              13.409              -8.171              5.221               
H              15.477              -7.597              4.493               
H              15.062              -6.019              4.439               
N              10.558              -7.678              3.553               
C              9.323               -8.448              3.384               
C              9.07                -8.798              1.922               
O              8.75                -9.944              1.578               
C              8.131               -7.686              3.97                
H              10.573              -6.696              3.901               
H              9.404               -9.306              3.911               
H              7.568               -8.314              4.503               
H              8.466               -6.953              4.559               
H              7.59                -7.299              3.226               
N              9.205               -7.799              1.068               
C              9.061               -7.995              -0.371              
C              10.127              -8.951              -0.879              
O              9.852               -9.787              -1.719              
C              9.123               -6.66               -1.134              
C              7.925               -5.716              -0.917              
C              8.181               -4.348              -1.527              
C              6.595               -6.289              -1.405              
H              9.419               -6.877              1.499               
H              8.159               -8.397              -0.55               
H              9.936               -6.177              -0.836              
H              9.166               -6.864              -2.102              
H              7.768               -5.62               0.068               
H              8.335               -4.443              -2.511              
H              7.388               -3.757              -1.371              
H              8.989               -3.937              -1.103              
H              6.399               -7.137              -0.914              
H              5.866               -5.627              -1.234              
H              6.654               -6.476              -2.385              
N              11.355              -8.803              -0.39               
C              12.459              -9.644              -0.874              
C              12.252              -11.121             -0.528              
O              12.529              -11.99              -1.351              
C              13.821              -9.154              -0.354              
C              14.98               -9.984              -0.899              
C              16.334              -9.556              -0.375              
O              16.409              -9.044              0.759               
O              17.337              -9.784              -1.095              
H              11.463              -8.076              0.33                
H              12.542              -9.543              -1.876              
H              13.943              -8.236              -0.66               
H              13.819              -9.246              0.617               
H              14.837              -10.922             -0.63               
H              14.993              -9.885              -1.88               
N              11.772              -11.398             0.695               
C              11.503              -12.77              1.127               
C              10.475              -13.403             0.2                 
O              10.638              -14.547             -0.218              
C              11.02               -12.807             2.584               
C              10.757              -14.216             3.107               
C              9.86                -14.158             4.33                
C              9.235               -15.514             4.586               
N              9.977               -16.258             5.636               
H              11.613              -10.566             1.293               
H              12.353              -13.298             1.078               
H              11.72               -12.387             3.154               
H              10.172              -12.287             2.643               
H              10.306              -14.745             2.397               
H              11.622              -14.636             3.357               
H              10.405              -13.904             5.117               
H              9.138               -13.499             4.17                
H              8.286               -15.386             4.881               
H              9.246               -16.045             3.736               
H              10.244              -17.155             5.283               
H              10.795              -15.744             5.893               
H              9.391               -16.376             6.438               
N              9.424               -12.656             -0.117              
C              8.392               -13.12              -1.04               
C              8.953               -13.281             -2.443              
O              8.632               -14.239             -3.152              
C              7.25                -12.106             -1.064              
C              5.936               -12.41              -1.785              
C              5.373               -13.807             -1.482              
C              4.948               -11.356             -1.32               
H              9.399               -11.722             0.343               
H              8.06                -14.016             -0.724              
H              7.011               -11.894             -0.096              
H              7.615               -11.246             -1.468              
H              6.083               -12.328             -2.783              
H              5.202               -13.885             -0.502              
H              4.52                -13.932             -1.985              
H              6.037               -14.496             -1.766              
H              5.289               -10.446             -1.561              
H              4.062               -11.506             -1.763              
H              4.835               -11.415             -0.327              
N              9.804               -12.336             -2.831              
C              10.434              -12.388             -4.148              
C              11.268              -13.665             -4.285              
O              11.158              -14.374             -5.297              
C              11.309              -11.157             -4.368              
C              12.085              -11.202             -5.646              
C              11.43               -11.063             -6.866              
C              13.472              -11.364             -5.636              
C              12.141              -11.089             -8.076              
C              14.19               -11.388             -6.842              
C              13.516              -11.249             -8.055              
H              9.975               -11.586             -2.142              
H              9.697               -12.452             -4.825              
H              10.718              -10.366             -4.394              
H              11.951              -11.105             -3.619              
H              10.443              -10.942             -6.891              
H              13.956              -11.462             -4.774              
H              11.643              -10.993             -8.94               
H              15.191              -11.508             -6.821              
H              14.03               -11.265             -8.915              
N              12.085              -13.97              -3.273              
C              12.957              -15.144             -3.347              
C              12.138              -16.416             -3.478              
O              12.494              -17.32              -4.254              
C              13.858              -15.228             -2.122              
C              15.109              -14.338             -2.112              
C              14.969              -13.027             -2.863              
C              15.501              -14.106             -0.664              
H              12.048              -13.33              -2.468              
H              13.543              -15.054             -4.16               
H              13.315              -14.977             -1.32               
H              14.17               -16.173             -2.031              
H              15.883              -14.869             -2.508              
H              14.23               -12.485             -2.459              
H              15.826              -12.513             -2.805              
H              14.757              -13.211             -3.824              
H              15.697              -14.984             -0.224              
H              16.317              -13.527             -0.625              
H              14.75               -13.653             -0.18               
N              11.029              -16.496             -2.751              
C              10.21               -17.703             -2.847              
C              9.611               -17.852             -4.251              
O              9.621               -18.947             -4.814              
C              9.175               -17.806             -1.716              
C              8.024               -16.812             -1.734              
C              7.117               -16.95              -0.508              
H              10.815              -15.695             -2.161              
H              10.805              -18.497             -2.685              
H              8.78                -18.741             -1.732              
H              9.662               -17.703             -0.83               
H              8.395               -15.887             -1.745              
H              7.473               -16.969             -2.55               
O              5.885               -17.047             -0.627              
N              7.725               -16.968             0.682               
H              7.186               -17.043             1.533               
H              8.74                -16.906             0.71                
N              9.141               -16.754             -4.831              
C              8.611               -16.786             -6.205              
C              9.688               -17.128             -7.244              
O              9.441               -17.925             -8.161              
C              7.9                 -15.466             -6.559              
C              6.641               -15.19              -5.738              
C              5.75                -16.418             -5.737              
C              4.288               -16.067             -5.503              
N              3.458               -17.303             -5.363              
H              9.176               -15.897             -4.256              
H              7.884               -17.487             -6.253              
H              8.543               -14.719             -6.407              
H              7.644               -15.502             -7.523              
H              6.905               -14.978             -4.805              
H              6.15                -14.43              -6.145              
H              5.828               -16.875             -6.621              
H              6.047               -17.034             -5.01               
H              4.212               -15.526             -4.667              
H              3.952               -15.534             -6.278              
H              3.964               -17.979             -4.831              
H              2.606               -17.075             -4.896              
H              3.258               -17.668             -6.27               
N              10.887              -16.577             -7.071              
C              11.996              -16.824             -8.01               
C              12.502              -18.273             -7.938              
O              12.903              -18.86              -8.96               
C              13.157              -15.814             -7.827              
C              12.734              -14.444             -8.352              
C              14.435              -16.25              -8.548              
C              12.019              -14.439             -9.692              
H              10.977              -15.97              -6.236              
H              11.613              -16.7               -8.932              
H              13.337              -15.734             -6.856              
H              12.134              -14.012             -7.667              
H              13.559              -13.869             -8.431              
H              15.156              -15.583             -8.373              
H              14.716              -17.145             -8.209              
H              14.258              -16.303             -9.528              
H              11.185              -14.982             -9.621              
H              11.79               -13.499             -9.938              
H              12.619              -14.832             -10.386             
N              12.468              -18.852             -6.738              
C              12.832              -20.257             -6.571              
C              11.919              -21.159             -7.388              
O              12.327              -22.243             -7.806              
C              12.797              -20.667             -5.1                
C              14.047              -20.244             -4.345              
H              12.171              -18.239             -5.962              
H              13.763              -20.368             -6.938              
H              12.008              -20.237             -4.67               
H              12.718              -21.659             -5.05               
O              15.045              -19.841             -4.942              
N              14                  -20.343             -3.024              
H              13.172              -20.688             -2.577              
H              14.789              -20.075             -2.471              
N              10.691              -20.701             -7.6                
C              9.686               -21.415             -8.35               
C              9.631               -21.018             -9.828              
O              8.676               -21.364             -10.521             
C              8.315               -21.22              -7.706              
C              8.237               -21.707             -6.261              
C              6.861               -21.533             -5.654              
O              6.763               -20.983             -4.533              
O              5.877               -21.951             -6.294              
H              10.515              -19.755             -7.164              
H              9.854               -22.418             -8.286              
H              8.117               -20.257             -7.704              
H              7.66                -21.735             -8.227              
H              8.45                -22.666             -6.251              
H              8.87                -21.179             -5.725              
N              10.636              -20.285             -10.307             
C              10.696              -19.904             -11.722             
C              10.611              -21.15              -12.612             
O              11.406              -22.066             -12.441             
C              11.982              -19.149             -12.017             
C              12.093              -18.533             -13.415             
C              11.208              -17.3               -13.515             
C              13.537              -18.163             -13.722             
H              11.352              -20.015             -9.612              
H              9.912               -19.315             -11.928             
H              12.062              -18.403             -11.361             
H              12.744              -19.781             -11.913             
H              11.802              -19.207             -14.09              
H              11.497              -16.625             -12.836             
H              11.287              -16.905             -14.431             
H              10.256              -17.556             -13.345             
H              14.108              -18.984             -13.683             
H              13.592              -17.763             -14.637             
H              13.863              -17.499             -13.048             
N              9.632               -21.186             -13.541             
C              9.449               -22.339             -14.438             
C              10.624              -22.517             -15.39              
O              11.308              -21.55              -15.725             
C              8.174               -21.994             -15.226             
C              7.496               -20.919             -14.437             
C              8.578               -20.17              -13.719             
H              9.29                -23.181             -13.901             
H              8.409               -21.669             -16.149             
H              7.584               -22.803             -15.313             
H              6.979               -20.306             -15.051             
H              6.842               -21.325             -13.783             
H              8.92                -19.404             -14.263             
H              8.265               -19.831             -12.83              
N              10.86               -23.76              -15.803             
C              11.871              -24.035             -16.816             
C              11.446              -23.379             -18.12              
O              10.251              -23.32              -18.427             
C              12.052              -25.547             -17.041             
O              12.311              -26.178             -15.783             
C              13.215              -25.826             -17.997             
H              10.28               -24.489             -15.355             
H              12.736              -23.629             -16.524             
H              11.186              -25.929             -17.418             
H              13.321              -25.057             -18.629             
H              14.059              -25.944             -17.472             
H              13.028              -26.66              -18.517             
H              11.877              -25.662             -15.036             
N              12.422              -22.876             -18.871             
C              12.147              -22.312             -20.185             
C              11.472              -23.33              -21.089             
O              11.896              -24.485             -21.15              
C              13.432              -21.882             -20.871             
C              14.318              -20.955             -20.075             
C              15.595              -20.695             -20.834             
O              16.458              -21.608             -20.898             
O              15.705              -19.595             -21.4               
H              13.366              -22.92              -18.449             
H              11.553              -21.502             -20.088             
H              13.956              -22.702             -21.07              
H              13.184              -21.414             -21.71              
H              13.858              -20.105             -19.965             
H              14.553              -21.391             -19.238             
N              10.435              -22.888             -21.795             
C              9.762               -23.715             -22.796             
C              10.595              -23.796             -24.079             
O              10.43               -24.703             -24.901             
C              8.36                -23.174             -23.094             
C              7.32                -23.495             -22.026             
C              6.008               -22.75              -22.223             
O              5.889               -21.966             -23.192             
O              5.09                -22.946             -21.399             
O              11.473              -22.963             -24.313             
H              10.146              -21.911             -21.576             
H              9.621               -24.641             -22.432             
H              8.425               -22.193             -23.16              
H              8.055               -23.58              -23.937             
H              7.123               -24.458             -22.068             
H              7.683               -23.229             -21.151             
H              11.8143             0.756456            4.48199             
