368
2.xyz
C              1.453               -9.141              -9.377              
C              1.44                -9.387              -7.866              
O              0.812               -8.634              -7.117              
C              0.517               -10.111             -10.086             
C              -0.862              -10.249             -9.463              
C              -1.321              -11.702             -9.521              
C              -0.832              -12.489             -8.306              
N              -0.22               -13.787             -8.705              
H              1.104               -8.213              -9.554              
H              0.402               -9.801              -11.033             
H              0.95                -11.017             -10.092             
H              -0.822              -9.963              -8.511              
H              -1.508              -9.687              -9.968              
H              -2.314              -11.726             -9.533              
H              -0.951              -12.125             -10.34              
H              -0.152              -11.939             -7.818              
H              -1.61               -12.663             -7.7                
H              0.3                 -13.662             -9.549              
H              0.39                -14.103             -7.979              
H              -0.942              -14.462             -8.853              
N              2.139               -10.427             -7.414              
C              2.176               -10.752             -5.98               
C              2.833               -9.617              -5.187              
O              2.302               -9.152              -4.178              
C              2.905               -12.082             -5.708              
O              2.173               -13.155             -6.311              
C              2.998               -12.341             -4.208              
H              2.639               -10.971             -8.135              
H              1.233               -10.859             -5.655              
H              3.828               -12.044             -6.138              
H              3.593               -11.656             -3.783              
H              2.085               -12.286             -3.798              
H              3.378               -13.254             -4.045              
H              2.446               -13.268             -7.272              
N              3.972               -9.138              -5.663              
C              4.659               -8.045              -4.982              
C              3.902               -6.718              -4.996              
O              3.934               -5.976              -4.01               
C              6.078               -7.868              -5.549              
C              7.129               -8.611              -4.712              
C              6.983               -10.119             -4.829              
C              8.533               -8.182              -5.112              
H              4.319               -9.587              -6.524              
H              4.805               -8.315              -4.009              
H              6.094               -8.248              -6.45               
H              6.297               -6.917              -5.525              
H              7.026               -8.339              -3.75               
H              7.094               -10.394             -5.785              
H              7.683               -10.568             -4.272              
H              6.076               -10.394             -4.508              
H              8.637               -7.198              -4.963              
H              9.204               -8.675              -4.558              
H              8.684               -8.39               -6.079              
N              3.214               -6.424              -6.092              
C              2.631               -5.091              -6.306              
C              1.492               -4.808              -5.341              
O              1.337               -3.693              -4.853              
C              2.159               -4.949              -7.762              
C              1.717               -3.567              -8.167              
C              0.456               -3.071              -8.091              
C              2.53                -2.51               -8.723              
N              0.416               -1.784              -8.56               
C              1.671               -1.411              -8.961              
C              3.885               -2.396              -9.06               
C              2.118               -0.196              -9.489              
C              4.339               -1.179              -9.58               
C              3.45                -0.096              -9.796              
H              3.122               -7.199              -6.776              
H              3.358               -4.413              -6.132              
H              2.909               -5.207              -8.369              
H              1.383               -5.56               -7.909              
H              -0.34               -3.573              -7.741              
H              -0.4                -1.205              -8.604              
H              4.515               -3.151              -8.936              
H              1.476               0.56                -9.631              
H              5.3                 -1.076              -9.801              
H              3.817               0.748               -10.179             
N              0.691               -5.83               -5.077              
C              -0.481              -5.679              -4.248              
C              -0.162              -5.862              -2.758              
O              -1.061              -5.75               -1.925              
C              -1.578              -6.662              -4.714              
C              -1.195              -8.132              -4.61               
C              -1.037              -8.573              -3.164              
C              -0.344              -9.913              -3.024              
N              0.859               -9.824              -2.142              
H              0.979               -6.731              -5.513              
H              -0.865              -4.75               -4.375              
H              -2.388              -6.505              -4.151              
H              -1.787              -6.455              -5.669              
H              -1.91               -8.686              -5.041              
H              -0.329              -8.278              -5.09               
H              -0.499              -7.883              -2.675              
H              -1.946              -8.638              -2.746              
H              -0.986              -10.576             -2.632              
H              -0.059              -10.233             -3.931              
H              1.297               -10.72              -2.093              
H              1.497               -9.157              -2.523              
H              0.576               -9.537              -1.228              
N              1.096               -6.176              -2.431              
C              1.511               -6.385              -1.043              
C              1.333               -5.078              -0.259              
O              1.501               -3.992              -0.824              
C              2.961               -6.855              -0.986              
C              3.403               -7.313              0.369               
H              1.745               -6.257              -3.24               
H              0.919               -7.077              -0.633              
H              3.085               -7.619              -1.633              
H              3.563               -6.099              -1.274              
N              3.741               -6.438              1.38                
C              3.582               -8.556              0.876               
C              4.087               -7.122              2.456               
N              4.008               -8.412              2.173               
H              3.725               -5.44               1.307               
H              3.433               -9.418              0.396               
H              4.362               -6.735              3.331               
N              0.992               -5.193              1.024               
C              0.753               -4.009              1.876               
C              1.937               -3.046              1.928               
O              1.744               -1.832              2.113               
C              0.342               -4.399              3.303               
C              1.426               -5.092              4.131               
C              1.017               -5.336              5.57                
H              0.909               -6.165              1.372               
H              -0.038              -3.509              1.484               
H              0.063               -3.567              3.795               
H              -0.45               -5.019              3.251               
H              1.636               -5.973              3.703               
H              2.246               -4.517              4.122               
O              0.222               -4.59               6.14                
N              1.57                -6.383              6.17                
H              1.355               -6.603              7.141               
H              2.216               -6.968              5.643               
N              3.149               -3.582              1.767               
C              4.369               -2.79               1.86                
C              4.915               -2.34               0.499               
O              6.026               -1.818              0.413               
C              5.469               -3.541              2.639               
C              5.171               -3.758              4.101               
C              4.225               -2.987              4.789               
C              5.866               -4.745              4.813               
C              3.976               -3.206              6.142               
C              5.617               -4.966              6.156               
C              4.676               -4.19               6.83                
H              3.144               -4.606              1.571               
H              4.135               -1.943              2.369               
H              5.582               -4.429              2.214               
H              6.3                 -3.006              2.571               
H              3.725               -2.277              4.308               
H              6.552               -5.296              4.335               
H              3.287               -2.645              6.616               
H              6.122               -5.693              6.65                
H              4.504               -4.339              7.8                 
N              4.131               -2.51               -0.561              
C              4.61                -2.208              -1.918              
C              4.725               -0.723              -2.294              
O              5.593               -0.367              -3.104              
C              3.764               -2.921              -2.955              
H              3.182               -2.863              -0.358              
H              5.538               -2.637              -2.032              
H              4.034               -2.625              -3.872              
H              3.896               -3.91               -2.875              
H              2.798               -2.704              -2.809              
N              3.822               0.115               -1.773              
C              3.684               1.5                 -2.255              
C              4.981               2.32                -2.334              
O              5.14                3.072               -3.288              
C              2.594               2.27                -1.496              
C              2.879               2.524               -0.052              
C              2.492               1.75                1.012               
C              3.611               3.63                0.506               
N              2.937               2.305               2.192               
C              3.622               3.459               1.911               
C              4.231               4.768               -0.04               
C              4.254               4.367               2.777               
C              4.883               5.645               0.808               
C              4.871               5.452               2.214               
H              3.24                -0.285              -1.017              
H              3.298               1.453               -3.202              
H              2.467               3.159               -1.936              
H              1.742               1.748               -1.545              
H              1.964               0.906               0.943               
H              2.785               1.928               3.104               
H              4.203               4.94                -1.022              
H              4.241               4.208               3.767               
H              5.369               6.425               0.431               
H              5.326               6.129               2.787               
N              5.922               2.169               -1.371              
C              7.145               2.972               -1.487              
C              8.011               2.541               -2.665              
O              8.953               3.246               -3.036              
C              7.9                 2.686               -0.176              
C              6.872               2.114               0.748               
C              5.909               1.38                -0.126              
H              6.918               3.957               -1.551              
H              8.644               2.031               -0.336              
H              8.288               3.533               0.197               
H              7.306               1.494               1.412               
H              6.412               2.851               1.257               
H              6.209               0.443               -0.305              
H              4.988               1.364               0.267               
N              7.69                1.378               -3.236              
C              8.524               0.79                -4.293              
C              7.851               0.853               -5.659              
O              8.388               0.353               -6.643              
C              8.94                -0.659              -3.923              
C              9.675               -0.728              -2.634              
C              11.04               -0.462              -2.598              
C              8.995               -1.009              -1.426              
C              11.746              -0.483              -1.414              
C              9.705               -1.025              -0.238              
C              11.071              -0.749              -0.231              
H              6.826               0.938               -2.88               
H              9.359               1.355               -4.351              
H              8.114               -1.186              -3.848              
H              9.526               -0.983              -4.643              
H              11.52               -0.249              -3.452              
H              8.025               -1.189              -1.444              
H              12.733              -0.31               -1.411              
H              9.228               -1.24               0.631               
H              11.573              -0.742              0.639               
N              6.672               1.462               -5.729              
C              5.897               1.449               -6.952              
C              6.248               2.538               -7.968              
O              5.665               2.581               -9.053              
C              4.408               1.5                 -6.616              
C              3.853               0.196               -6.061              
C              2.417               0.349               -5.6                
H              6.37                1.931               -4.856              
H              6.049               0.545               -7.413              
H              4.256               2.217               -5.933              
H              3.897               1.725               -7.449              
H              3.887               -0.496              -6.776              
H              4.41                -0.084              -5.285              
O              1.926               1.467               -5.464              
N              1.729               -0.775              -5.366              
H              0.775               -0.744              -5.044              
H              2.196               -1.668              -5.523              
N              7.214               3.393               -7.63               
C              7.65                4.512               -8.478              
C              9.12                4.831               -8.186              
O              9.608               4.53                -7.096              
C              6.788               5.762               -8.214              
C              7.052               6.499               -6.88               
C              6.182               7.742               -6.66               
H              7.646               3.198               -6.692              
H              7.584               4.22                -9.431              
H              6.94                6.422               -8.959              
H              5.817               5.492               -8.223              
H              6.883               5.857               -6.129              
H              8.015               6.777               -6.862              
O              6.583               8.7                 -5.98               
N              4.989               7.736               -7.24               
H              4.354               8.519               -7.126              
H              4.72                6.931               -7.803              
N              9.825               5.488               -9.137              
C              11.152              5.94                -8.802              
C              11.155              6.807               -7.538              
O              10.211              7.572               -7.271              
C              11.572              6.769               -10.042             
C              10.827              6.139               -11.163             
C              9.496               5.753               -10.554             
H              11.79               5.162               -8.691              
H              11.31               7.726               -9.92               
H              12.56               6.708               -10.178             
H              10.696              6.786               -11.914             
H              11.307              5.329               -11.501             
H              8.834               6.498               -10.626             
H              9.122               4.932               -10.987             
N              12.236              6.687               -6.761              
C              12.383              7.549               -5.586              
C              12.399              8.998               -6.042              
O              13.218              9.39                -6.882              
C              13.659              7.197               -4.82               
C              13.87               8.191               -3.691              
C              13.512              5.779               -4.268              
H              12.914              5.977               -7.047              
H              11.586              7.414               -5.001              
H              14.427              7.297               -5.442              
H              14.529              7.82                -3.036              
H              14.22               9.051               -4.063              
H              13.001              8.36                -3.226              
H              12.803              5.774               -3.565              
H              13.256              5.164               -5.012              
H              14.383              5.49                -3.873              
N              11.431              9.752               -5.542              
C              11.331              11.152              -5.865              
C              12.07               11.916              -4.769              
O              11.517              12.226              -3.704              
C              9.879               11.56               -6.009              
C              9.723               13.001              -6.451              
O              10.628              13.815              -6.23               
O              8.662               13.333              -7.001              
H              10.771              9.252               -4.914              
H              11.831              11.308              -6.71               
H              9.454               10.972              -6.689              
H              9.433               11.449              -5.128              
N              13.343              12.181              -5.026              
C              14.217              12.832              -4.051              
C              13.783              14.263              -3.74               
O              14.053              14.774              -2.658              
C              15.656              12.823              -4.559              
H              13.667              11.889              -5.973              
H              14.197              12.297              -3.191              
H              15.964              13.763              -4.701              
H              16.243              12.377              -3.885              
H              15.7                12.323              -5.423              
N              13.104              14.903              -4.678              
C              12.618              16.265              -4.46               
C              11.479              16.243              -3.444              
O              11.535              16.94               -2.412              
C              12.171              16.902              -5.78               
C              11.488              18.246              -5.547              
C              13.368              17.057              -6.721              
H              12.95               14.375              -5.554              
H              13.366              16.806              -4.074              
H              11.49               16.301              -6.196              
H              12.173              18.927              -5.29               
H              11.028              18.535              -6.386              
H              10.817              18.155              -4.812              
H              13.357              17.975              -7.114              
H              14.21               16.92               -6.202              
H              13.302              16.376              -7.448              
N              10.457              15.441              -3.748              
C              9.253               15.317              -2.925              
C              9.603               14.832              -1.514              
O              8.995               15.28               -0.539              
C              8.285               14.353              -3.628              
C              6.934               14.123              -2.977              
C              6.478               12.676              -3.077              
C              6.607               12.091              -4.471              
N              5.554               11.07               -4.727              
H              10.591              14.9                -4.638              
H              8.813               16.218              -2.853              
H              8.129               14.704              -4.565              
H              8.752               13.458              -3.713              
H              6.991               14.377              -2.006              
H              6.25                14.708              -3.423              
H              7.03                12.121              -2.447              
H              5.515               12.622              -2.797              
H              6.521               12.828              -5.144              
H              7.508               11.664              -4.564              
H              4.796               11.493              -5.223              
H              5.939               10.327              -5.274              
H              5.224               10.709              -3.855              
N              10.577              13.93               -1.418              
C              10.949              13.336              -0.145              
C              12.016              14.118              0.592               
O              12.392              13.75               1.711               
C              11.411              11.892              -0.354              
C              10.27               10.928              -0.668              
C              10.876              9.673               -1.306              
C              9.524               10.574              0.612               
H              11.039              13.694              -2.32               
H              10.12               13.293              0.443               
H              12.032              11.879              -1.119              
H              11.841              11.586              0.477               
H              9.649               11.352              -1.309              
H              11.518              9.255               -0.665              
H              10.145              9.027               -1.52               
H              11.355              9.929               -2.144              
H              9.149               11.407              1.021               
H              8.778               9.942               0.4                 
H              10.154              10.14               1.257               
N              12.497              15.19               -0.035              
H              12.065              15.382              -0.962              
H              2.44002             -9.21888            -9.77516            
H              13.2304             15.7722             0.366755            
