367
4.xyz
C              -15.439             -13.582             -26.515             
C              -14.314             -14.406             -27.136             
O              -14.539             -15.157             -28.084             
C              -16.598             -13.427             -27.525             
C              -17.844             -12.931             -26.884             
O              -18.396             -13.624             -26                 
O              -18.283             -11.839             -27.271             
H              -15.881             -14.172             -25.786             
H              -16.297             -12.783             -28.219             
H              -16.758             -14.321             -27.927             
N              -13.089             -14.271             -26.614             
C              -12.067             -15.248             -26.921             
C              -12.277             -16.536             -26.086             
O              -12.656             -16.454             -24.911             
C              -10.676             -14.681             -26.582             
C              -10.08              -13.67              -27.574             
C              -8.772              -13.073             -26.997             
N              -9.084              -12.179             -25.874             
C              -8.512              -12.176             -24.676             
N              -7.48               -12.99              -24.401             
N              -8.994              -11.345             -23.748             
H              -12.957             -13.453             -26.01              
H              -12.122             -15.499             -27.892             
H              -10.734             -14.229             -25.686             
H              -10.035             -15.451             -26.512             
H              -9.857              -14.126             -28.418             
H              -10.714             -12.928             -27.712             
H              -8.216              -13.821             -26.682             
H              -8.335              -12.563             -27.717             
H              -9.821              -11.486             -26.034             
H              -7.122              -13.592             -25.108             
H              -7.078              -12.984             -23.488             
H              -9.749              -10.731             -23.958             
H              -8.588              -11.341             -22.83              
N              -12.013             -17.685             -26.705             
C              -12.015             -18.987             -26.031             
C              -10.571             -19.295             -25.747             
O              -9.758              -19.52              -26.667             
C              -12.735             -20.082             -26.887             
C              -14.27              -20.018             -26.78              
C              -14.85              -18.75              -27.392             
C              -16.327             -18.583             -27.066             
N              -16.95              -17.503             -27.878             
H              -11.801             -17.58              -27.728             
H              -12.51              -18.904             -25.18              
H              -12.48              -19.941             -27.831             
H              -12.433             -20.965             -26.56              
H              -14.655             -20.815             -27.253             
H              -14.524             -20.059             -25.811             
H              -14.355             -17.964             -27.032             
H              -14.747             -18.794             -28.382             
H              -16.8               -19.448             -27.25              
H              -16.422             -18.36              -26.093             
H              -17.384             -16.839             -27.27              
H              -16.245             -17.048             -28.422             
H              -17.638             -17.899             -28.486             
N              -10.193             -19.212             -24.451             
C              -8.769              -19.411             -24.101             
C              -8.497              -20.588             -23.163             
O              -9.45               -21.09              -22.531             
C              -8.195              -18.099             -23.503             
C              -8.486              -16.914             -24.45              
C              -8.815              -17.882             -22.111             
H              -10.93              -19.013             -23.784             
H              -8.262              -19.579             -24.97              
H              -7.211              -18.192             -23.459             
H              -7.64               -16.412             -24.609             
H              -8.839              -17.269             -25.311             
H              -9.161              -16.318             -24.024             
H              -8.146              -18.138             -21.418             
H              -9.058              -16.92              -22.014             
H              -9.629              -18.452             -22.029             
N              -7.226              -21.03              -23.101             
C              -6.81               -21.972             -22.087             
C              -6.115              -21.142             -21.019             
O              -5.15               -20.462             -21.315             
C              -5.828              -22.99              -22.663             
C              -6.468              -23.913             -23.671             
C              -7.44               -24.86              -23.012             
C              -7.488              -26.149             -23.834             
N              -8.936              -26.452             -24.013             
H              -6.603              -20.638             -23.829             
H              -7.605              -22.403             -21.689             
H              -5.092              -22.493             -23.109             
H              -5.471              -23.536             -21.912             
H              -6.958              -23.366             -24.353             
H              -5.754              -24.446             -24.13              
H              -7.123              -25.08              -22.109             
H              -8.338              -24.462             -23.008             
H              -7.074              -25.989             -24.704             
H              -7.061              -26.867             -23.328             
H              -9.328              -26.722             -23.135             
H              -9.405              -25.638             -24.353             
H              -9.039              -27.198             -24.67              
N              -6.628              -21.199             -19.799             
C              -6.068              -20.358             -18.711             
C              -5.471              -21.172             -17.603             
O              -5.965              -22.234             -17.251             
C              -7.189              -19.537             -18.084             
O              -7.629              -18.521             -19.004             
H              -7.413              -21.844             -19.666             
H              -5.341              -19.786             -19.125             
H              -7.955              -20.129             -17.881             
H              -6.852              -19.094             -17.266             
H              -8.344              -17.981             -18.57              
N              -4.417              -20.656             -17.002             
C              -3.89               -21.259             -15.807             
C              -3.546              -20.092             -14.881             
O              -2.859              -19.107             -15.272             
C              -2.576              -22.057             -16.025             
O              -2.752              -22.987             -17.106             
C              -2.129              -22.879             -14.778             
H              -4.021              -19.812             -17.452             
H              -4.593              -21.799             -15.372             
H              -1.839              -21.403             -16.283             
H              -2.465              -23.812             -14.871             
H              -1.134              -22.876             -14.731             
H              -2.512              -22.457             -13.961             
H              -3.685              -22.921             -17.473             
N              -3.964              -20.232             -13.639             
C              -3.672              -19.232             -12.619             
C              -2.882              -19.821             -11.488             
O              -3.166              -20.936             -11.028             
C              -4.983              -18.615             -12.054             
C              -5.649              -17.919             -13.279             
C              -4.678              -17.581             -10.99              
C              -7.1                -17.39              -13.089             
H              -4.508              -21.097             -13.45              
H              -3.085              -18.544             -13.065             
H              -5.562              -19.338             -11.775             
H              -5.068              -17.145             -13.553             
H              -5.658              -18.576             -14.041             
H              -5.525              -17.137             -10.699             
H              -4.25               -18.024             -10.202             
H              -4.055              -16.892             -11.359             
H              -7.092              -16.72              -12.358             
H              -7.393              -16.976             -13.942             
H              -7.682              -18.159             -12.854             
N              -1.808              -19.101             -11.14              
C              -0.922              -19.507             -10.053             
C              -0.647              -18.34              -9.161              
O              -0.948              -17.165             -9.462              
C              0.447               -20.046             -10.603             
O              1.017               -19.049             -11.442             
C              0.249               -21.403             -11.415             
H              -1.665              -18.241             -11.706             
H              -1.386              -20.225             -9.523              
H              1.061               -20.203             -9.812              
H              0.795               -22.103             -10.975             
H              -0.714              -21.635             -11.389             
H              0.552               -21.248             -12.345             
H              0.303               -18.434             -11.798             
N              0                   -18.653             -8.039              
C              0.43                -17.63              -7.114              
C              1.946               -17.611             -7.162              
O              2.596               -18.684             -7.024              
C              -0.072              -17.997             -5.726              
C              -1.229              -17.245             -5.095              
C              -1.348              -17.815             -3.683              
C              -1.082              -15.689             -5.073              
H              0.159               -19.668             -7.899              
H              0.093               -16.749             -7.422              
H              -0.334              -18.982             -5.748              
H              0.717               -17.921             -5.087              
H              -2.052              -17.429             -5.59               
H              -0.493              -17.659             -3.189              
H              -2.098              -17.361             -3.204              
H              -1.53               -18.796             -3.736              
H              -1.001              -15.368             -6.01               
H              -1.89               -15.303             -4.641              
H              -0.266              -15.458             -4.554              
N              2.513               -16.462             -7.415              
C              3.955               -16.283             -7.442              
C              4.245               -15.233             -6.373              
O              4.059               -14.005             -6.545              
C              4.414               -15.821             -8.808              
C              5.949               -15.797             -8.959              
O              6.678               -16.311             -8.067              
O              6.421               -15.257             -9.993              
H              1.844               -15.673             -7.599              
H              4.367               -17.126             -7.137              
H              4.051               -16.442             -9.496              
H              4.079               -14.898             -8.965              
N              4.635               -15.698             -5.2                
C              4.957               -14.706             -4.176              
C              3.889               -13.704             -3.835              
O              4.122               -12.492             -3.788              
H              4.686               -16.694             -5.085              
H              5.24                -15.207             -3.316              
H              5.814               -14.204             -4.468              
N              2.703               -14.114             -3.57               
C              1.764               -12.939             -3.317              
C              1.051               -12.312             -4.507              
O              0.043               -11.614             -4.331              
H              2.453               -15.041             -3.538              
H              1.068               -13.255             -2.622              
H              2.312               -12.218             -2.821              
N              1.534               -12.604             -5.709              
C              0.893               -12.113             -6.95               
C              0.103               -13.231             -7.638              
O              0.61                -14.317             -7.878              
C              1.937               -11.606             -7.924              
C              1.302               -10.957             -9.162              
C              2.916               -10.62              -7.249              
H              2.385               -13.195             -5.713              
H              0.248               -11.387             -6.695              
H              2.466               -12.389             -8.259              
H              0.319               -11.128             -9.153              
H              1.474               -9.974              -9.141              
H              1.707               -11.353             -9.983              
H              3.45                -10.166             -7.957              
H              2.389               -9.951              -6.732              
H              3.515               -11.133             -6.64               
N              -1.184              -12.982             -7.9                
C              -1.987              -13.95              -8.706              
C              -1.621              -13.727             -10.157             
O              -1.762              -12.588             -10.676             
C              -3.496              -13.751             -8.552              
C              -4.285              -14.466             -7.482              
C              -5.756              -14.005             -7.555              
C              -4.204              -15.962             -7.686              
H              -1.562              -12.113             -7.522              
H              -1.72               -14.863             -8.436              
H              -3.652              -12.748             -8.423              
H              -3.921              -13.988             -9.451              
H              -3.925              -14.238             -6.586              
H              -6.121              -14.229             -8.455              
H              -6.278              -14.476             -6.849              
H              -5.794              -13.02              -7.407              
H              -3.248              -16.26              -7.639              
H              -4.73               -16.431             -6.973              
H              -4.58               -16.203             -8.583              
N              -1.105              -14.77              -10.806             
C              -0.612              -14.641             -12.214             
C              -1.554              -15.487             -13.079             
O              -1.604              -16.731             -12.901             
C              0.826               -15.214             -12.319             
C              1.368               -15.133             -13.728             
C              1.781               -14.336             -11.448             
H              -1.07               -15.653             -10.282             
H              -0.709              -13.698             -12.478             
H              0.777               -16.183             -12.073             
H              1.138               -14.245             -14.129             
H              2.364               -15.24              -13.715             
H              0.967               -15.86              -14.288             
H              2.31                -13.757             -12.057             
H              1.224               -13.787             -10.836             
H              2.376               -14.942             -10.934             
N              -2.218              -14.87              -14.058             
C              -3.249              -15.528             -14.883             
C              -2.733              -15.479             -16.287             
O              -2.541              -14.383             -16.838             
C              -4.495              -14.724             -14.701             
C              -5.726              -15.152             -15.51              
N              -5.643              -16.184             -16.423             
C              -7.001              -14.647             -15.602             
C              -6.854              -16.338             -16.981             
N              -7.655              -15.39              -16.53              
H              -1.945              -13.868             -14.196             
H              -3.318              -16.469             -14.59              
H              -4.778              -14.731             -13.72              
H              -4.32               -13.747             -14.939             
H              -7.358              -13.881             -15.079             
H              -7.097              -17.053             -17.629             
H              -8.606              -15.248             -16.835             
N              -2.355              -16.65              -16.831             
C              -1.914              -16.726             -18.196             
C              -3.055              -17.284             -19.095             
O              -3.639              -18.327             -18.75              
C              -0.691              -17.616             -18.328             
C              -0.28               -17.642             -19.792             
C              0.457               -17.081             -17.458             
H              -2.414              -17.457             -16.184             
H              -1.707              -15.803             -18.529             
H              -0.951              -18.539             -18.088             
H              -0.125              -16.707             -20.113             
H              0.562               -18.172             -19.894             
H              -1.006              -18.064             -20.336             
H              0.414               -17.518             -16.563             
H              1.325               -17.294             -17.902             
H              0.356               -16.093             -17.362             
N              -3.375              -16.567             -20.192             
C              -4.399              -16.968             -21.159             
C              -3.683              -17.236             -22.47              
O              -2.834              -16.402             -22.898             
C              -5.43               -15.88              -21.403             
C              -6.224              -15.504             -20.165             
C              -7.128              -14.305             -20.448             
H              -2.815              -15.684             -20.29              
H              -4.8                -17.819             -20.846             
H              -4.964              -15.057             -21.734             
H              -6.076              -16.195             -22.102             
H              -6.794              -16.269             -19.9               
H              -5.596              -15.259             -19.439             
O              -6.846              -13.491             -21.338             
N              -8.212              -14.205             -19.725             
H              -8.86               -13.424             -19.845             
H              -8.417              -14.923             -19.025             
N              -3.957              -18.406             -23.075             
C              -3.359              -18.831             -24.343             
C              -4.455              -19.109             -25.351             
O              -5.461              -19.718             -25.031             
C              -2.594              -20.194             -24.16              
C              -1.515              -20.226             -23.114             
C              -0.291              -19.365             -23.432             
C              0.905               -19.661             -22.504             
N              2.012               -18.659             -22.637             
H              -4.649              -18.997             -22.548             
H              -2.776              -18.092             -24.687             
H              -3.291              -20.887             -23.94              
H              -2.195              -20.421             -25.057             
H              -1.897              -19.913             -22.227             
H              -1.201              -21.182             -22.983             
H              -0.006              -19.543             -24.371             
H              -0.534              -18.404             -23.326             
H              0.577               -19.665             -21.554             
H              1.26                -20.575             -22.725             
H              2.773               -19.077             -23.13              
H              1.676               -17.867             -23.142             
H              2.31                -18.38              -21.727             
N              -4.235              -18.696             -26.596             
C              -5.256              -18.931             -27.658             
C              -4.528              -18.665             -28.969             
O              -3.684              -17.754             -29.063             
C              -6.521              -18.069             -27.475             
C              -6.378              -16.614             -27.874             
C              -6.868              -16.003             -29.023             
C              -5.619              -15.56              -27.172             
N              -6.48               -14.668             -29.08              
C              -5.719              -14.355             -27.99              
C              -4.866              -15.515             -25.988             
C              -5.108              -13.151             -27.607             
C              -4.317              -14.294             -25.592             
C              -4.388              -13.167             -26.402             
H              -3.345              -18.222             -26.767             
H              -5.493              -19.882             -27.626             
H              -7.254              -18.452             -28.032             
H              -6.782              -18.082             -26.513             
H              -7.422              -16.461             -29.712             
H              -6.728              -14.035             -29.819             
H              -4.723              -16.329             -25.438             
H              -5.183              -12.334             -28.162             
H              -3.864              -14.244             -24.703             
H              -3.911              -12.329             -26.123             
N              -4.771              -19.516             -29.964             
C              -4.337              -19.2               -31.366             
C              -2.878              -18.818             -31.403             
O              -2.484              -17.873             -32.085             
C              -5.148              -18.05              -31.96              
C              -6.639              -18.37              -32.119             
O              -7.032              -19.551             -32.075             
O              -7.419              -17.421             -32.299             
H              -5.262              -20.379             -29.714             
H              -4.45               -20.05              -31.888             
H              -5.061              -17.263             -31.357             
H              -4.777              -17.837             -32.858             
N              -2.069              -19.529             -30.642             
C              -0.641              -19.254             -30.612             
C              -0.153              -18.033             -29.849             
O              1.062               -17.828             -29.783             
H              -2.522              -20.275             -30.086             
H              -0.15               -20.093             -30.24              
H              -0.296              -19.19              -31.592             
N              -1.072              -17.284             -29.224             
H              -2.047              -17.679             -29.275             
H              -0.874245           -16.3951            -28.7286            
H              -15.2039            -12.6372            -26.0259            
