235
5.xyz
C              15.29               15.771              28.725              
C              15.151              16.028              27.221              
O              14.468              16.999              26.832              
C              14.292              14.737              29.166              
C              14.607              14.415              30.61               
C              13.976              13.179              31.111              
C              12.515              13.416              31.348              
N              12.171              12.52               32.481              
H              16.225              15.511              28.927              
H              13.398              15.115              29.121              
H              14.411              13.931              28.635              
H              15.619              14.345              30.707              
H              14.315              15.204              31.184              
H              14.073              12.453              30.437              
H              14.396              12.91               31.972              
H              12.368              14.345              31.612              
H              12.003              13.153              30.558              
H              12.065              11.584              32.145              
H              12.902              12.549              33.163              
H              11.314              12.824              32.898              
N              15.753              15.15               26.411              
C              15.573              15.261              24.943              
C              15.474              13.825              24.363              
O              16.093              12.885              24.88               
C              16.884              15.884              24.467              
O              17.016              16.076              23.128              
H              16.318              14.433              26.864              
H              14.71               15.714              24.772              
H              16.994              16.778              24.957              
H              17.647              15.289              24.808              
H              16.196              16.52               22.743              
N              14.691              13.684              23.293              
C              14.661              12.405              22.559              
C              14.688              12.789              21.067              
O              14.201              13.905              20.688              
C              13.441              11.553              22.907              
O              13.544              10.229              22.253              
C              12.121              12.223              22.499              
H              14.135              14.504              23.034              
H              15.48               11.904              22.765              
H              13.413              11.383              23.911              
H              12.312              13.121              22.102              
H              11.653              11.653              21.824              
H              11.539              12.331              23.305              
H              14.506              10.014              22.103              
N              15.238              11.893              20.253              
C              15.35               12.156              18.789              
C              14.693              11.026              18.002              
O              14.89               9.88                18.324              
C              16.841              12.275              18.357              
O              17.399              13.349              19.108              
C              17.012              12.617              16.843              
H              15.572              11.028              20.694              
H              14.866              13.009              18.594              
H              17.314              11.421              18.608              
H              16.251              13.193              16.557              
H              17.874              13.1                16.719              
H              17.016              11.768              16.322              
H              16.736              13.69               19.784              
N              13.846              11.406              17.046              
C              13.177              10.431              16.193              
C              13.66               10.716              14.797              
O              13.492              11.864              14.292              
C              11.643              10.634              16.284              
C              11.16               10.441              17.748              
C              10.956              9.675               15.328              
C              9.738               10.967              17.954              
H              13.709              12.43               16.966              
H              13.536              9.547               16.45               
H              11.44               11.567              16.022              
H              11.182              9.477               17.956              
H              11.773              10.939              18.34               
H              9.969               9.827               15.352              
H              11.292              9.829               14.4                
H              11.152              8.733               15.599              
H              9.12                10.473              17.349              
H              9.474               10.821              18.904              
H              9.72                11.94               17.74               
N              14.21               9.701               14.118              
C              14.732              9.991               12.749              
C              13.931              9.142               11.807              
O              13.542              8.041               12.144              
C              16.187              9.484               12.735              
C              17.102              10.342              13.573              
C              18.579              9.917               13.389              
C              19.47               10.892              14.174              
N              20.95               10.74               13.907              
H              14.241              8.806               14.565              
H              14.576              10.948              12.56               
H              16.191              8.561               13.096              
H              16.504              9.496               11.795              
H              17.019              11.296              13.296              
H              16.871              10.244              14.537              
H              18.694              9.018               13.757              
H              18.806              9.976               12.44               
H              19.197              11.837              13.943              
H              19.306              10.757              15.162              
H              21.21               9.794               14.077              
H              21.13               10.981              12.958              
H              21.449              11.349              14.517              
N              13.606              9.685               10.647              
C              12.763              8.958               9.699               
C              13.535              8.961               8.373               
O              14.015              9.991               7.909               
C              11.403              9.666               9.518               
C              10.556              9.579               10.761              
C              9.304               10.42               10.567              
N              8.378               10.278              11.749              
C              8.324               11.069              12.798              
N              9.091               12.08               12.974              
N              7.409               10.821              13.789              
H              13.982              10.628              10.473              
H              12.661              8.026               10.002              
H              11.581              10.616              9.319               
H              10.928              9.222               8.777               
H              10.278              8.644               10.916              
H              11.052              9.942               11.534              
H              9.563               11.368              10.491              
H              8.828               10.104              9.763               
H              7.741               9.485               11.71               
H              9.782               12.324              12.269              
H              9.032               12.652              13.798              
H              6.792               10.05               13.674              
H              7.384               11.405              14.581              
N              13.653              7.793               7.754               
C              14.451              7.772               6.53                
C              13.833              6.712               5.649               
O              13.231              5.74                6.154               
C              15.882              7.402               6.814               
C              16.104              6.049               7.467               
C              17.568              5.882               7.882               
C              18.484              5.577               6.707               
N              18.75               6.739               5.823               
H              13.189              7.002               8.164               
H              14.379              8.652               6.084               
H              16.396              7.412               5.945               
H              16.282              8.106               7.419               
H              15.533              5.978               8.28                
H              15.872              5.328               6.821               
H              17.874              6.73                8.314               
H              17.629              5.131               8.538               
H              19.366              5.227               7.067               
H              18.068              4.832               6.157               
H              18.714              6.446               4.867               
H              18.058              7.444               5.981               
H              19.657              7.111               6.024               
N              13.988              6.887               4.335               
C              13.58               5.799               3.387               
C              14.672              4.808               3.189               
O              15.833              5.149               2.995               
C              13.246              6.405               2.002               
C              11.961              7.209               2.056               
C              10.767              6.226               2.142               
N              10.809              5.111               1.213               
C              10.396              5.162               -0.049              
N              9.909               6.286               -0.526              
N              10.474              4.107               -0.843              
H              14.386              7.773               4.035               
H              12.769              5.348               3.783               
H              13.982              7.003               1.749               
H              13.128              5.665               1.369               
H              11.943              7.769               2.863               
H              11.854              7.734               1.233               
H              10.74               5.878               3.089               
H              9.93                6.768               1.985               
H              11.178              4.231               1.547               
H              9.855               7.117               0.021               
H              9.575               6.318               -1.485              
H              10.875              3.256               -0.478              
H              10.148              4.147               -1.778              
N              14.3                3.535               3.251               
C              15.187              2.424               2.971               
C              14.448              1.358               2.131               
O              13.415              0.781               2.562               
C              15.708              1.76                4.263               
C              16.729              0.65                3.953               
C              18.099              1.152               3.483               
O              18.521              2.261               3.899               
O              18.762              0.443               2.673               
H              13.29               3.403               3.525               
H              15.989              2.739               2.46                
H              16.164              2.44                4.784               
H              14.954              1.347               4.711               
H              16.873              0.13                4.78                
H              16.358              0.087               3.231               
N              14.914              1.111               0.89                
C              14.111              0.333               -0.05               
C              12.666              0.875               -0.102              
O              12.469              2.104               -0.255              
C              14.23               -1.186              0.274               
C              15.677              -1.687              0.216               
O              16.453              -1.205              -0.65               
O              16.078              -2.528              1.033               
H              15.837              1.502               0.684               
H              14.5                0.468               -0.964              
H              13.881              -1.324              1.188               
H              13.695              -1.677              -0.395              
N              11.648              0.036               -0.001              
C              10.286              0.513               -0.053              
C              9.697               0.834               1.324               
O              8.479               0.962               1.491               
C              9.374               -0.493              -0.766              
C              9.65                -0.517              -2.295              
O              9.734               0.589               -2.871              
O              9.834               -1.598              -2.861              
H              11.91               -0.96               0.115               
H              10.286              1.385               -0.577              
H              9.558               -1.391              -0.41               
H              8.44                -0.222              -0.63               
N              10.578              0.888               2.295               
C              10.144              1.062               3.692               
C              10.456              2.461               4.144               
O              11.342              3.122               3.615               
C              10.899              0.061               4.642               
C              10.578              -1.414              4.32                
C              11.798              -2.26               4.572               
C              11.866              -3.455              3.628               
N              12.384              -4.641              4.372               
H              11.567              0.802               2.018               
H              9.154               0.908               3.736               
H              11.865              0.206               4.52                
H              10.611              0.252               5.565               
H              9.838               -1.709              4.91                
H              10.317              -1.477              3.366               
H              12.617              -1.707              4.434               
H              11.774              -2.604              5.508               
H              10.955              -3.652              3.289               
H              12.481              -3.243              2.879               
H              13.299              -4.865              4.039               
H              12.423              -4.427              5.347               
H              11.773              -5.416              4.222               
N              9.698               2.925               5.146               
H              8.875               2.364               5.378               
H              9.95612             3.79027             5.62755             
H              15.0724             16.7005             29.2498             
