299
0.xyz
N              6.854               22.952              -7.403              
C              7.314               21.637              -7.952              
C              7.95                20.706              -6.922              
O              8.084               21.057              -5.749              
H              7.54                23.645              -7.605              
H              6.515               21.175              -8.38               
H              7.979               21.821              -8.7                
H              5.988               23.196              -7.83               
H              6.735               22.868              -6.418              
N              8.366               19.529              -7.391              
C              8.875               18.418              -6.559              
C              10.002              18.834              -5.607              
O              10.845              19.684              -5.92               
C              9.374               17.26               -7.463              
O              9.058               15.955              -6.959              
H              8.302               19.448              -8.444              
H              8.103               18.079              -5.996              
H              8.956               17.364              -8.368              
H              10.37               17.336              -7.552              
H              8.6                 16.049              -6.079              
N              10.018              18.227              -4.435              
C              11.174              18.366              -3.552              
C              11.637              16.989              -3.127              
O              10.911              15.998              -3.278              
C              10.827              19.229              -2.337              
C              10.789              20.73               -2.618              
H              9.184               17.671              -4.204              
H              11.911              18.807              -4.064              
H              9.922               18.964              -1.986              
H              11.508              19.075              -1.613              
N              11.578              21.62               -1.955              
C              10.03               21.488              -3.523              
C              11.323              22.878              -2.407              
N              10.387              22.795              -3.366              
H              12.247              21.411              -1.246              
H              9.361               21.111              -4.15               
H              11.753              23.699              -2.081              
N              12.848              16.901              -2.583              
C              13.354              15.624              -2.068              
C              12.362              14.999              -1.042              
O              12.152              13.767              -1.074              
C              14.784              15.817              -1.489              
C              15.438              14.555              -0.946              
S              15.067              14.247              0.793               
C              15.304              12.484              0.832               
H              13.385              17.782              -2.555              
H              13.435              14.981              -2.834              
H              15.371              16.198              -2.219              
H              14.734              16.501              -0.746              
H              15.14               13.76               -1.527              
H              16.454              14.627              -1.093              
H              15.666              12.207              1.726               
H              14.43               12.018              0.675               
H              15.953              12.211              0.118               
N              11.803              15.822              -0.138              
C              10.847              15.312              0.916               
C              9.63                14.574              0.334               
O              9.002               13.76               1.005               
C              10.388              16.428              1.892               
S              10.604              15.918              3.641               
H              12.068              16.811              -0.212              
H              11.364              14.667              1.496               
H              10.942              17.22               1.735               
H              9.434               16.595              1.74                
H              11.339              15.248              3.69                
N              9.282               14.832              -0.922              
C              8.242               14.024              -1.537              
C              8.454               12.467              -1.48               
O              7.436               11.796              -1.591              
C              7.931               14.538              -2.932              
C              7.402               16.003              -2.931              
O              6.964               16.609              -1.914              
O              7.425               16.591              -4.013              
H              9.777               15.595              -1.38               
H              7.37                14.2                -1.032              
H              8.76                14.521              -3.474              
H              7.23                13.968              -3.337              
N              9.705               11.925              -1.27               
C              10.042              10.518              -0.946              
C              9.287               10.016              0.351               
O              9.124               8.781               0.598               
C              11.508              10.337              -0.644              
H              10.469              12.67               -1.37               
H              9.758               9.93                -1.706              
H              11.668              10.435              0.34                
H              11.806              9.425               -0.934              
H              12.045              11.027              -1.133              
N              8.995               10.974              1.223               
C              8.242               10.658              2.481               
C              6.752               10.727              2.331               
O              6.021               10.136              3.137               
C              8.677               11.623              3.615               
C              10.099              11.385              4.088               
C              10.415              10.269              4.889               
C              11.102              12.273              3.738               
C              11.725              10.044              5.288               
C              12.447              12.076              4.17                
C              12.748              10.968              4.925               
H              9.31                11.918              0.985               
H              8.489               9.699               2.709               
H              8.622               12.538              3.263               
H              8.074               11.477              4.376               
H              9.697               9.647               5.164               
H              10.899              13.07               3.173               
H              11.961              9.238               5.831               
H              13.14               12.753              3.913               
H              13.681              10.785              5.234               
N              6.266               11.423              1.327               
C              4.845               11.683              1.223               
C              4.037               10.46               0.966               
O              4.393               9.643               0.052               
C              4.576               12.759              0.153               
C              3.083               12.776              -0.209              
C              5.084               14.165              0.68                
H              6.965               11.759              0.639               
H              4.54                12.093              2.108               
H              5.065               12.501              -0.669              
H              2.985               12.959              -1.185              
H              2.683               11.889              0.01                
H              2.627               13.491              0.317               
H              5.542               14.617              -0.072              
H              4.291               14.676              0.978               
H              5.706               13.995              1.431               
N              2.897               10.321              1.653               
C              2.059               9.144               1.388               
C              1.414               8.587               2.629               
O              1.36                9.259               3.685               
H              2.681               11.049              2.323               
H              1.342               9.4                 0.714               
H              2.632               8.428               0.949               
N              0.885               7.378               2.522               
C              0.216               6.744               3.646               
C              1                   5.486               3.971               
O              1.265               4.66                3.08                
C              -1.218              6.369               3.254               
O              -1.845              7.53                2.613               
C              -2.002              5.953               4.453               
H              0.987               6.934               1.59                
H              0.256               7.353               4.428               
H              -1.198              5.621               2.57                
H              -1.406              5.498               5.126               
H              -2.426              6.753               4.895               
H              -2.734              5.311               4.193               
H              -1.323              8.354               2.833               
N              1.352               5.317               5.239               
C              2.301               4.275               5.644               
C              1.663               3.5                 6.792               
O              0.877               4.104               7.538               
C              3.595               4.928               6.178               
C              4.315               5.761               5.176               
C              4.148               7.15                4.891               
C              5.256               5.258               4.197               
N              4.972               7.511               3.855               
C              5.681               6.432               3.408               
C              5.872               3.991               3.953               
C              6.626               6.326               2.393               
C              6.81                3.894               2.87                
C              7.134               5.045               2.089               
H              0.908               5.972               5.91                
H              2.41                3.651               4.881               
H              3.356               5.514               6.945               
H              4.212               4.206               6.472               
H              3.526               7.734               5.382               
H              5.045               8.445               3.475               
H              5.671               3.205               4.5                 
H              6.939               7.133               1.889               
H              7.221               3.028               2.677               
H              7.738               4.937               1.306               
N              1.9                 2.175               6.857               
C              1.39                1.414               8.039               
C              2.513               0.652               8.716               
O              3.452               0.194               8.1                 
C              0.392               0.416               7.675               
C              0.461               -0.018              6.318               
C              1.273               -1.23               6.248               
C              0.282               -2.191              5.607               
N              0.883               -2.796              4.397               
H              2.415               1.767               6.094               
H              0.997               2.075               8.685               
H              0.501               -0.385              8.292               
H              -0.53               0.804               7.86                
H              -0.459              -0.219              5.961               
H              0.878               0.691               5.738               
H              2.011               -1.116              5.645               
H              1.481               -1.558              7.125               
H              0.058               -2.907              6.262               
H              -0.539              -1.687              5.355               
H              0.423               -2.443              3.581               
H              1.856               -2.566              4.355               
H              0.779               -3.791              4.432               
N              2.434               0.55                10.008              
C              3.535               -0.042              10.805              
C              3.555               -1.535              10.56               
O              2.537               -2.199              10.745              
C              3.26                0.14                12.305              
C              4.375               -0.369              13.204              
C              5.53                0.623               13.115              
C              3.785               -0.347              14.623              
H              1.563               0.904               10.446              
H              4.392               0.353               10.488              
H              3.151               1.107               12.475              
H              2.44                -0.363              12.524              
H              4.678               -1.254              12.885              
H              5.22                1.523               13.42               
H              6.281               0.313               13.698              
H              5.846               0.682               12.168              
H              2.984               -0.942              14.653              
H              4.473               -0.673              15.268              
H              3.521               0.588               14.853              
N              4.711               -2.027              10.184              
C              4.923               -3.49               10.003              
C              5.785               -4.178              11.01               
O              5.708               -5.417              11.148              
C              5.25                -3.85               8.554               
C              4.113               -3.312              7.707               
C              6.624               -3.296              8.069               
H              5.467               -1.336              10.021              
H              3.987               -3.923              10.018              
H              5.233               -4.829              8.473               
H              3.244               -3.684              8.034               
H              4.089               -2.313              7.77                
H              4.248               -3.58               6.752               
H              7.1                 -4.023              7.587               
H              6.453               -2.527              7.463               
H              7.142               -3.006              8.866               
N              6.644               -3.451              11.699              
C              7.414               -4.105              12.762              
C              7.905               -3.078              13.743              
O              8.028               -1.866              13.434              
C              8.553               -4.928              12.254              
O              9.427               -4.104              11.615              
H              6.723               -2.47               11.45               
H              6.797               -4.736              13.241              
H              8.999               -5.372              13.025              
H              8.2                 -5.611              11.622              
H              9.763               -3.383              12.235              
N              8.163               -3.574              14.951              
C              8.539               -2.675              16.075              
C              9.568               -3.454              16.891              
O              9.29                -4.628              17.219              
C              7.308               -2.335              16.927              
O              7.627               -1.462              18.004              
H              8.085               -4.592              15.046              
H              8.98                -1.885              15.691              
H              6.628               -1.894              16.345              
H              6.933               -3.183              17.299              
H              8.335               -0.822              17.712              
N              10.719              -2.87               17.185              
C              11.724              -3.534              17.996              
C              12.055              -2.538              19.126              
O              12.385              -1.381              18.823              
C              13.025              -3.7                17.213              
C              13.017              -4.55               15.933              
C              14.036              -4.069              14.874              
O              15.211              -3.726              15.183              
O              13.661              -3.995              13.683              
H              10.838              -1.914              16.792              
H              11.363              -4.36               18.388              
H              13.34               -2.784              16.95               
H              13.701              -4.112              17.829              
H              13.261              -5.469              16.171              
H              12.128              -4.488              15.525              
N              12.067              -3.066              20.352              
C              12.518              -2.363              21.564              
C              11.707              -1.137              21.889              
O              12.188              -0.269              22.582              
C              13.965              -1.986              21.407              
C              14.838              -3.019              21.967              
H              11.715              -4.062              20.384              
H              12.406              -3.018              22.334              
H              14.157              -1.876              20.434              
H              14.117              -1.123              21.883              
O              14.968              -3.146              23.205              
N              15.373              -3.812              21.103              
H              15.216              -3.733              20.117              
H              15.992              -4.565              21.415              
N              10.446              -1.085              21.465              
C              9.696               0.128               21.725              
C              9.32                0.264               23.209              
O              9.229               1.373               23.765              
C              8.475               0.112               20.803              
C              7.7                 1.435               20.74               
C              8.321               2.609               20.347              
C              6.33                1.42                20.997              
C              7.572               3.795               20.214              
C              5.574               2.593               20.865              
C              6.194               3.754               20.55               
H              10.095              -1.905              20.985              
H              10.302              0.908               21.514              
H              8.782               -0.09               19.885              
H              7.847               -0.579              21.131              
H              9.291               2.63                20.155              
H              5.884               0.576               21.274              
H              7.994               4.626               19.899              
H              4.572               2.544               21.011              
H              5.689               4.632               20.544              
N              9.018               -0.88               23.867              
H              9.046               -1.727              23.325              
H              8.78763             -0.806449           24.8481             
