370
0.xyz
N              23.733              86.77               34.308              
C              24.577              85.627              34.777              
C              24.084              84.292              34.183              
O              23.082              83.754              34.606              
C              24.563              85.56               36.318              
C              25.409              84.439              36.906              
C              26.757              84.31               36.2                
C              27.593              83.22               36.839              
N              28.281              82.413              35.788              
H              23.088              86.438              33.625              
H              25.519              85.788              34.474              
H              24.906              86.43               36.666              
H              23.617              85.43               36.61               
H              25.572              84.627              37.876              
H              24.915              83.573              36.815              
H              26.597              84.077              35.25               
H              27.24               85.172              36.277              
H              28.278              83.636              37.432              
H              27.001              82.622              37.374              
H              27.606              82.091              35.126              
H              28.96               82.983              35.327              
H              28.732              81.631              36.216              
H              23.24               87.149              35.086              
H              24.323              87.466              33.908              
N              24.773              83.804              33.168              
C              24.327              82.624              32.432              
C              24.98               81.358              33.006              
O              26.161              81.344              33.367              
C              24.649              82.765              30.91               
C              24.09               84.089              30.369              
C              24.124              81.582              30.099              
C              22.602              84.106              30.108              
H              25.646              84.321              32.939              
H              23.344              82.537              32.603              
H              25.635              82.781              30.814              
H              24.315              84.815              31.027              
H              24.571              84.299              29.51               
H              24.403              81.684              29.146              
H              24.5                80.735              30.468              
H              23.128              81.558              30.155              
H              22.113              83.919              30.959              
H              22.336              85.004              29.76               
H              22.375              83.406              29.432              
N              24.197              80.29               33.084              
C              24.717              78.965              33.351              
C              24.305              78.071              32.219              
O              23.153              78.001              31.872              
C              24.152              78.391              34.639              
C              24.473              79.188              35.869              
C              23.649              80.232              36.276              
C              25.594              78.865              36.654              
C              23.959              80.964              37.431              
C              25.883              79.581              37.798              
C              25.079              80.625              38.18               
H              23.181              80.489              32.937              
H              25.713              79.032              33.329              
H              23.164              78.353              34.55               
H              24.528              77.48               34.76               
H              22.84               80.465              35.757              
H              26.18               78.107              36.372              
H              23.369              81.727              37.704              
H              26.698              79.327              38.353              
H              25.292              81.156              39.008              
N              25.228              77.362              31.629              
C              24.862              76.45               30.579              
C              24.249              75.183              31.158              
O              24.646              74.73               32.234              
C              26.098              76.131              29.786              
C              26.689              77.332              29.036              
C              27.704              76.811              28.024              
C              28.035              77.767              26.902              
N              29.169              78.603              27.376              
H              26.193              77.505              31.964              
H              24.181              76.887              29.977              
H              26.804              75.786              30.404              
H              25.879              75.43               29.107              
H              25.965              77.799              28.558              
H              27.146              77.92               29.68               
H              28.557              76.586              28.517              
H              27.343              75.957              27.623              
H              28.313              77.257              26.108              
H              27.257              78.342              26.72               
H              29.882              78.013              27.754              
H              29.54               79.126              26.609              
H              28.846              79.231              28.084              
N              23.297              74.572              30.449              
C              22.672              73.347              31.027              
C              23.684              72.242              31.332              
O              23.555              71.59               32.356              
C              21.747              72.884              29.909              
C              21.412              74.176              29.215              
C              22.722              74.906              29.143              
H              22.141              73.59               31.855              
H              22.216              72.263              29.29               
H              20.928              72.458              30.274              
H              21.048              73.995              28.302              
H              20.74               74.691              29.747              
H              23.291              74.562              28.408              
H              22.59               75.886              29.055              
N              24.64               72.039              30.426              
C              25.615              70.953              30.628              
C              26.499              71.303              31.853              
O              26.919              70.39               32.592              
C              26.398              70.655              29.383              
C              27.229              71.826              28.894              
C              26.514              72.824              27.97               
O              27.346              73.509              27.338              
O              25.216              72.972              27.867              
H              24.64               72.667              29.622              
H              25.14               70.099              30.802              
H              27.02               69.915              29.576              
H              25.765              70.425              28.664              
H              27.543              72.342              29.685              
H              28.007              71.471              28.385              
N              26.743              72.59               32.082              
C              27.488              73.053              33.258              
C              26.742              72.786              34.543              
O              27.339              72.322              35.551              
C              27.798              74.558              33.248              
C              28.844              74.948              32.248              
C              28.933              76.463              32.038              
O              28.084              77.264              32.592              
O              29.896              76.804              31.314              
H              26.363              73.239              31.361              
H              28.389              72.592              33.282              
H              26.963              75.025              33.021              
H              28.123              74.794              34.145              
H              29.725              74.653              32.572              
H              28.62               74.553              31.375              
N              25.459              73.093              34.54               
C              24.671              72.749              35.693              
C              24.553              71.272              35.955              
O              24.538              70.796              37.125              
C              23.251              73.336              35.599              
C              23.295              74.801              35.717              
C              21.911              75.423              35.545              
C              23.892              75.283              37.013              
H              25.108              73.562              33.704              
H              25.094              73.188              36.518              
H              22.898              73.09               34.721              
H              22.738              72.963              36.342              
H              23.906              75.194              35.015              
H              21.298              75.068              36.25               
H              21.981              76.416              35.631              
H              21.553              75.19               34.642              
H              24.835              74.951              37.1                
H              23.895              76.286              37.036              
H              23.353              74.94               37.787              
N              24.467              70.505              34.89               
C              24.36               69.132              35.079              
C              25.648              68.557              35.736              
O              25.58               67.719              36.675              
C              24.111              68.517              33.733              
C              23.48               67.221              33.821              
C              22.855              66.79               32.498              
N              22.654              65.373              32.774              
C              23.511              64.381              32.461              
N              23.184              63.148              32.805              
N              24.665              64.58               31.818              
H              24.487              70.999              33.988              
H              23.593              68.908              35.7                
H              23.525              69.142              33.215              
H              24.993              68.431              33.268              
H              24.143              66.505              34.075              
H              22.739              67.218              34.505              
H              22.017              67.227              32.406              
H              23.503              66.901              31.812              
H              21.796              65.1                33.243              
H              22.335              62.92               33.261              
H              23.834              62.39               32.592              
H              24.869              65.536              31.549              
H              25.274              63.845              31.619              
N              26.805              68.988              35.247              
C              28.07               68.55               35.823              
C              28.178              68.883              37.301              
O              28.577              68.035              38.105              
C              29.219              69.173              35.036              
C              30.62               69.008              35.579              
C              31.076              67.569              35.649              
H              26.731              69.64               34.449              
H              28.122              67.543              35.728              
H              29.203              68.79               34.091              
H              29.036              70.173              34.942              
H              31.257              69.516              34.99               
H              30.656              69.4                36.504              
O              30.82               66.78               34.781              
N              31.696              67.222              36.75               
H              32.029              66.255              36.888              
H              31.853              67.914              37.481              
N              27.785              70.1                37.688              
C              27.943              70.519              39.082              
C              26.921              69.885              40.02               
O              27.249              69.493              41.123              
C              27.838              72.047              39.136              
H              27.38               70.689              36.951              
H              28.873              70.255              39.394              
H              27.014              72.337              38.654              
H              27.791              72.34               40.089              
H              28.641              72.448              38.7                
N              25.66               69.801              39.597              
C              24.55               69.42               40.454              
C              24.17               67.9                40.48               
O              23.612              67.393              41.503              
C              23.345              70.233              40.075              
C              23.502              71.781              40.059              
C              22.218              72.397              39.679              
C              23.893              72.239              41.447              
H              25.539              70.037              38.579              
H              24.77               69.687              41.421              
H              23.057              69.974              39.151              
H              22.604              70.035              40.719              
H              24.217              72.004              39.401              
H              21.494              72.149              40.335              
H              22.294              73.403              39.661              
H              21.93               72.089              38.763              
H              24.76               71.813              41.713              
H              23.999              73.235              41.458              
H              23.182              71.977              42.103              
N              24.391              67.191              39.372              
C              24.016              65.794              39.301              
C              24.575              64.979              40.446              
O              23.82               64.172              40.988              
C              24.387              65.104              37.967              
C              23.698              63.764              37.774              
S              21.888              63.801              37.856              
C              21.519              64.417              36.232              
H              24.837              67.714              38.601              
H              23.002              65.737              39.341              
H              24.13               65.712              37.211              
H              25.381              64.963              37.947              
H              24.01               63.367              36.867              
H              24.077              63.1                38.476              
H              21.984              65.294              36.083              
H              21.829              63.762              35.537              
H              20.529              64.553              36.133              
N              25.863              65.16               40.822              
C              26.307              64.346              41.949              
C              25.527              64.565              43.282              
O              25.397              63.617              44.102              
C              27.763              64.689              42.088              
C              28.169              65.254              40.752              
C              26.949              66.019              40.338              
H              26.292              63.351              41.708              
H              27.914              65.372              42.814              
H              28.316              63.875              42.303              
H              28.955              65.853              40.855              
H              28.37               64.52               40.114              
H              26.911              66.915              40.775              
H              26.9                66.125              39.346              
N              24.978              65.747              43.484              
C              24.187              66.02               44.652              
C              22.813              65.294              44.582              
O              22.255              64.875              45.621              
C              23.958              67.548              44.884              
O              23.018              68.032              43.943              
C              25.31               68.351              44.791              
H              25.167              66.448              42.735              
H              24.663              65.676              45.47               
H              23.581              67.671              45.823              
H              26.062              67.701              44.797              
H              25.307              68.873              43.945              
H              25.368              68.959              45.575              
H              23.268              67.748              43.008              
N              22.264              65.145              43.4                
C              21.062              64.363              43.225              
C              21.338              62.881              43.355              
O              20.583              62.145              44.072              
C              20.46               64.707              41.842              
C              19.139              64.054              41.58               
C              18.105              64.632              42.512              
C              18.702              64.283              40.177              
H              22.756              65.626              42.619              
H              20.396              64.627              43.939              
H              20.339              65.687              41.815              
H              21.106              64.402              41.161              
H              19.213              63.07               41.737              
H              18.023              65.62               42.361              
H              17.215              64.201              42.345              
H              18.374              64.468              43.464              
H              19.375              63.902              39.532              
H              17.813              63.841              40.009              
H              18.608              65.268              39.994              
N              22.464              62.444              42.809              
C              22.878              61.055              42.926              
C              23.071              60.669              44.398              
O              22.68               59.55               44.794              
C              24.14               60.776              42.052              
C              24.553              59.311              42.08               
C              23.433              58.367              41.614              
O              23.128              57.382              42.351              
O              22.821              58.621              40.543              
H              23.013              63.166              42.301              
H              22.184              60.454              42.516              
H              23.91               61.01               41.135              
H              24.868              61.305              42.423              
H              25.308              59.188              41.467              
H              24.772              59.064              43.004              
N              23.564              61.598              45.203              
C              23.698              61.376              46.618              
C              22.365              61.05               47.231              
O              22.312              60.216              48.147              
C              24.37               62.577              47.349              
H              23.839              62.483              44.725              
H              24.325              60.599              46.771              
H              25.356              62.484              47.269              
H              24.065              63.419              46.919              
H              24.097              62.558              48.304              
N              21.29               61.715              46.794              
C              19.986              61.403              47.35               
C              19.504              60.017              46.893              
O              19.009              59.21               47.719              
C              18.951              62.451              46.967              
C              19.34               63.847              47.448              
C              18.248              64.753              47.172              
C              19.574              63.875              48.918              
H              21.467              62.42               46.075              
H              20.052              61.392              48.355              
H              18.89               62.481              45.988              
H              18.101              62.216              47.394              
H              20.173              64.118              46.963              
H              17.399              64.468              47.647              
H              18.461              65.697              47.475              
H              18.04               64.795              46.181              
H              20.317              63.244              49.167              
H              19.829              64.802              49.215              
H              18.741              63.599              49.411              
N              19.717              59.699              45.633              
C              19.331              58.354              45.142              
C              20.068              57.238              45.831              
O              19.474              56.173              46.072              
C              19.622              58.218              43.663              
C              18.549              58.688              42.708              
C              17.599              57.81               42.246              
C              18.56               59.986              42.188              
C              16.622              58.225              41.344              
C              17.612              60.396              41.275              
C              16.648              59.522              40.843              
O              15.728              59.977              39.905              
H              20.148              60.413              45.043              
H              18.336              58.245              45.314              
H              20.466              58.736              43.455              
H              19.804              57.243              43.462              
H              17.599              56.856              42.554              
H              19.269              60.622              42.489              
H              15.902              57.591              41.058              
H              17.629              61.34               40.925              
H              15.543              60.94               40.078              
N              21.32               57.484              46.198              
C              22.113              56.537              46.902              
C              23.551              57.044              47.043              
C              24.388              56.82               45.805              
C              25.726              57.55               45.863              
N              26.465              57.41               44.591              
C              27.747              57.765              44.425              
N              28.44               58.29               45.443              
N              28.374              57.568              43.273              
H              21.66               58.44               45.917              
H              22.151              55.661              46.373              
H              23.518              58.02               47.227              
H              23.976              56.561              47.8                
H              24.577              55.842              45.697              
H              23.894              57.151              44.999              
H              25.55               58.51               46.03               
H              26.264              57.154              46.595              
H              25.976              57.026              43.806              
H              28.017              58.403              46.336              
H              29.392              58.568              45.299              
H              27.869              57.124              42.522              
H              29.315              57.849              43.151              
H              21.7424             56.2993             47.911              
