184
5.xyz
C              -7.273              3.657               -39.075             
O              -7.249              3.583               -37.852             
N              -6.512              2.905               -39.866             
C              -5.556              1.96                -39.3               
C              -4.226              2.636               -38.988             
O              -3.251              1.969               -38.619             
C              -5.347              0.772               -40.242             
C              -6.576              -0.123              -40.334             
H              -6.654              3.045               -40.878             
H              -5.936              1.64                -38.423             
H              -5.143              1.121               -41.151             
H              -4.586              0.229               -39.901             
O              -7.293              -0.331              -39.346             
N              -6.819              -0.669              -41.524             
H              -6.204              -0.485              -42.291             
H              -7.613              -1.261              -41.65              
N              -4.185              3.964               -39.107             
C              -2.973              4.684               -38.729             
C              -2.996              5.147               -37.264             
O              -2.059              5.815               -36.804             
C              -2.753              5.87                -39.668             
O              -3.888              6.701               -39.708             
H              -5.034              4.406               -39.467             
H              -2.187              4.057               -38.837             
H              -1.972              6.395               -39.341             
H              -2.569              5.521               -40.584             
H              -4.557              6.392               -39.031             
N              -4.051              4.789               -36.53              
C              -4.123              5.065               -35.085             
C              -3.118              4.23                -34.295             
O              -3.035              3.014               -34.484             
C              -5.523              4.773               -34.511             
C              -6.6                5.812               -34.772             
S              -7.947              5.677               -33.543             
C              -7.253              6.612               -32.178             
H              -4.805              4.307               -37.053             
H              -3.9                6.039               -34.945             
H              -5.842              3.879               -34.884             
H              -5.436              4.648               -33.502             
H              -6.186              6.737               -34.737             
H              -6.967              5.684               -35.709             
H              -6.31               6.318               -32.016             
H              -7.264              7.587               -32.401             
H              -7.797              6.453               -31.353             
N              -2.406              4.863               -33.373             
C              -1.461              4.142               -32.514             
C              -2.195              3.406               -31.394             
O              -3.32               3.777               -31.039             
C              -0.441              5.104               -31.908             
O              -1.07               5.941               -30.952             
H              -2.568              5.883               -33.311             
H              -0.99               3.456               -33.078             
H              0.271               4.578               -31.46              
H              -0.061              5.667               -32.631             
H              -0.378              6.337               -30.35              
N              -1.558              2.38                -30.826             
C              -2.147              1.643               -29.704             
C              -2.521              2.588               -28.554             
O              -3.593              2.462               -27.961             
C              -1.199              0.548               -29.2               
C              -0.885              -0.569              -30.212             
S              -2.327              -1.474              -30.793             
C              -3.336              -1.557              -29.319             
H              -0.636              2.156               -31.236             
H              -2.991              1.202               -30.027             
H              -0.322              0.972               -28.924             
H              -1.602              0.117               -28.377             
H              -0.373              -0.142              -31                 
H              -0.199              -1.205              -29.774             
H              -4.128              -2.146              -29.485             
H              -2.798              -1.933              -28.563             
H              -3.653              -0.639              -29.075             
N              -1.636              3.533               -28.259             
C              -1.915              4.581               -27.272             
C              -3.226              5.288               -27.501             
O              -4.07               5.359               -26.607             
C              -0.808              5.643               -27.257             
O              0.194               5.318               -26.319             
H              -0.738              3.469               -28.78              
H              -1.948              4.137               -26.357             
H              -0.404              5.693               -28.166             
H              -1.213              6.52                -27.014             
H              0.102               4.36                -26.046             
N              -3.383              5.821               -28.705             
C              -4.505              6.696               -29.012             
C              -5.853              5.989               -29.173             
O              -6.893              6.634               -29.05              
C              -4.199              7.516               -30.275             
C              -3.17               8.614               -30.028             
H              -2.65               5.565               -29.396             
H              -4.606              7.342               -28.227             
H              -3.843              6.9                 -30.97              
H              -5.044              7.939               -30.586             
O              -2.413              8.568               -29.063             
N              -3.165              9.624               -30.893             
H              -3.82               9.634               -31.65              
H              -2.511              10.371              -30.788             
N              -5.85               4.696               -29.407             
C              -7.129              4.019               -29.515             
C              -7.5                3.347               -28.203             
O              -8.574              2.917               -28.04              
C              -7.12               2.939               -30.572             
C              -6.217              1.74                -30.47              
C              -6.817              0.642               -29.657             
C              -5.936              1.164               -31.803             
H              -4.943              4.246               -29.499             
H              -7.838              4.7                 -29.735             
H              -8.079              2.585               -30.653             
H              -6.917              3.392               -31.468             
H              -5.337              2.026               -30.057             
H              -7.681              0.335               -30.068             
H              -6.188              -0.141              -29.61              
H              -7.002              0.961               -28.722             
H              -5.484              1.843               -32.396             
H              -5.331              0.362               -31.724             
H              -6.79               0.872               -32.252             
N              -6.536              3.292               -27.288             
C              -6.726              2.572               -26.027             
C              -7.917              3.093               -25.257             
O              -8.772              2.322               -24.899             
C              -5.482              2.653               -25.144             
C              -5.557              1.763               -23.909             
C              -5.709              0.391               -24.027             
C              -5.45               2.295               -22.633             
C              -5.762              -0.432              -22.906             
C              -5.504              1.487               -21.512             
C              -5.664              0.128               -21.651             
O              -5.713              -0.662              -20.528             
H              -5.664              3.788               -27.537             
H              -6.887              1.598               -26.247             
H              -4.695              2.368               -25.68              
H              -5.372              3.592               -24.837             
H              -5.784              -0.024              -24.938             
H              -5.33               3.283               -22.521             
H              -5.869              -1.421              -23.016             
H              -5.427              1.894               -20.597             
H              -6.012              -1.58               -20.785             
N              -7.98               4.405               -25.017             
C              -9.043              4.965               -24.179             
C              -10.405             4.74                -24.825             
O              -11.408             4.455               -24.148             
C              -8.797              6.46                -23.935             
O              -9.87               7.052               -23.226             
H              -7.239              4.969               -25.459             
H              -9.033              4.48                -23.3               
H              -7.96               6.563               -23.405             
H              -8.699              6.914               -24.817             
H              -10.41              7.617               -23.849             
N              -10.407             4.835               -26.148             
C              -11.6               4.7                 -26.97              
C              -12.08              3.26                -27.096             
O              -13.268             2.97                -26.935             
C              -11.301             5.287               -28.352             
C              -12.266             4.942               -29.466             
C              -11.776             5.477               -30.803             
H              -9.454              5.02                -26.561             
H              -12.344             5.234               -26.531             
H              -11.268             6.298               -28.268             
H              -10.374             4.981               -28.634             
H              -12.345             3.954               -29.533             
H              -13.15              5.35                -29.268             
O              -11.068             6.482               -30.849             
N              -12.13              4.8                 -31.889             
H              -11.851             5.107               -32.812             
H              -12.694             3.956               -31.777             
N              -11.149             2.35                -27.351             
C              -11.52              0.996               -27.738             
C              -11.314             -0.054              -26.653             
O              -11.833             -1.154              -26.781             
C              -10.738             0.588               -28.997             
C              -11.009             1.456               -30.207             
C              -12.445             1.377               -30.675             
O              -13.064             0.297               -30.533             
O              -12.958             2.397               -31.184             
H              -10.174             2.675               -27.254             
H              -12.501             0.985               -28.031             
H              -9.779              0.657               -28.783             
H              -11                 -0.335              -29.221             
H              -10.826             2.392               -29.965             
H              -10.438             1.147               -30.947             
N              -10.58              0.273               -25.589             
H              -10.209             1.23                -25.583             
H              -7.92003            4.34521             -39.5517            
H              -10.419             -0.405612           -24.8514            
