234
3.xyz
C              12.874              -35.728             4.129               
O              12.127              -35.851             3.151               
N              14.167              -35.41              4.017               
C              14.846              -35.195             2.737               
C              15.791              -36.369             2.509               
O              16.862              -36.445             3.124               
C              15.628              -33.885             2.728               
C              14.824              -32.621             2.96                
C              13.52               -32.502             2.504               
C              15.374              -31.556             3.653               
C              12.791              -31.345             2.711               
C              14.656              -30.401             3.876               
C              13.366              -30.301             3.403               
O              12.65               -29.142             3.627               
H              14.663              -35.326             4.94                
H              14.163              -35.198             2.015               
H              16.336              -33.936             3.443               
H              16.086              -33.798             1.835               
H              13.095              -33.269             2.014               
H              16.312              -31.628             3.999               
H              11.856              -31.268             2.363               
H              15.068              -29.638             4.378               
H              11.803              -29.176             3.101               
N              15.413              -37.276             1.614               
C              16.241              -38.443             1.33                
C              16.768              -38.456             -0.096              
O              17.415              -39.43              -0.502              
C              15.463              -39.735             1.613               
C              14.949              -39.841             3.051               
C              14.142              -41.095             3.258               
C              16.105              -39.774             4.033               
H              14.508              -37.087             1.151               
H              17.033              -38.435             1.963               
H              14.68               -39.755             1.015               
H              16.068              -40.495             1.455               
H              14.381              -39.035             3.248               
H              14.707              -41.901             3.068               
H              13.817              -41.141             4.206               
H              13.351              -41.099             2.642               
H              16.589              -38.904             3.924               
H              15.756              -39.844             4.969               
H              16.739              -40.529             3.858               
N              16.465              -37.432             -0.88               
C              17.063              -37.244             -2.189              
C              17.139              -35.747             -2.437              
O              16.506              -34.942             -1.744              
C              16.272              -37.954             -3.293              
C              14.809              -37.577             -3.283              
H              15.759              -36.773             -0.474              
H              17.997              -37.58              -2.142              
H              16.664              -37.698             -4.171              
H              16.352              -38.936             -3.152              
O              14.456              -36.423             -3.534              
N              13.949              -38.541             -2.999              
H              14.282              -39.466             -2.798              
H              12.967              -38.354             -2.982              
N              17.925              -35.361             -3.434              
C              18.131              -33.936             -3.61               
C              16.851              -33.222             -4.027              
O              16.631              -32.075             -3.622              
C              19.245              -33.681             -4.614              
C              19.968              -32.417             -4.356              
C              21.038              -32.387             -3.482              
C              19.552              -31.238             -4.951              
C              21.7                -31.206             -3.219              
C              20.216              -30.046             -4.692              
C              21.289              -30.034             -3.827              
H              18.329              -36.09              -4.006              
H              18.392              -33.559             -2.709              
H              19.886              -34.429             -4.548              
H              18.835              -33.632             -5.511              
H              21.339              -33.228             -3.035              
H              18.769              -31.243             -5.572              
H              22.482              -31.202             -2.581              
H              19.904              -29.193             -5.141              
H              21.776              -29.178             -3.635              
N              15.982              -33.882             -4.796              
C              14.733              -33.249             -5.224              
C              13.843              -32.874             -4.037              
O              13.214              -31.806             -4.053              
C              13.975              -34.159             -6.188              
C              14.634              -34.258             -7.547              
O              15.36               -33.32              -7.93               
O              14.407              -35.273             -8.243              
H              16.258              -34.84              -5.052              
H              14.98               -32.388             -5.69               
H              13.934              -35.068             -5.785              
H              13.058              -33.791             -6.302              
N              13.772              -33.734             -3.011              
C              13.025              -33.419             -1.786              
C              13.469              -32.067             -1.259              
O              12.659              -31.212             -0.884              
C              13.277              -34.46              -0.668              
C              12.661              -35.856             -0.909              
O              11.711              -36.037             -1.697              
O              13.126              -36.806             -0.22               
H              14.281              -34.624             -3.156              
H              12.062              -33.338             -2.044              
H              14.267              -34.569             -0.57               
H              12.898              -34.094             0.182               
N              14.784              -31.878             -1.226              
C              15.397              -30.7               -0.64               
C              15.16               -29.484             -1.518              
O              14.713              -28.433             -1.04               
C              16.89               -30.994             -0.468              
C              17.697              -29.868             0.108               
C              17.77               -29.666             1.479               
C              18.442              -29.049             -0.726              
C              18.56               -28.63              2.008               
C              19.229              -28.018             -0.201              
C              19.281              -27.812             1.154               
H              15.338              -32.655             -1.66               
H              14.928              -30.525             0.232               
H              16.975              -31.776             0.14                
H              17.26               -31.21              -1.365              
H              17.266              -30.251             2.102               
H              18.421              -29.192             -1.715              
H              18.589              -28.496             3.001               
H              19.755              -27.43              -0.84               
H              19.84               -27.071             1.537               
N              15.416              -29.632             -2.819              
C              15.318              -28.501             -3.737              
C              13.874              -28.048             -3.916              
O              13.625              -26.85              -4.123              
C              15.955              -28.87              -5.08               
C              16.056              -27.695             -6.055              
C              17.067              -27.931             -7.166              
O              17.898              -28.857             -7.03               
O              17.032              -27.184             -8.172              
H              15.681              -30.587             -3.108              
H              15.87               -27.732             -3.386              
H              16.868              -29.185             -4.904              
H              15.394              -29.555             -5.502              
H              15.176              -27.57              -6.474              
H              16.347              -26.903             -5.551              
N              12.914              -28.969             -3.813              
C              11.509              -28.581             -3.91               
C              11.136              -27.611             -2.794              
O              10.421              -26.632             -3.03               
C              10.62               -29.818             -3.868              
C              9.199               -29.558             -4.303              
C              8.396               -30.84              -4.423              
O              8.28                -31.553             -3.406              
O              7.896               -31.136             -5.532              
H              13.239              -29.932             -3.666              
H              11.339              -28.147             -4.802              
H              11.006              -30.485             -4.481              
H              10.598              -30.139             -2.938              
H              8.761               -28.999             -3.626              
H              9.213               -29.136             -5.189              
N              11.629              -27.844             -1.575              
C              11.283              -26.928             -0.49               
C              12.01               -25.594             -0.648              
O              11.445              -24.535             -0.345              
C              11.556              -27.566             0.881               
C              10.348              -28.34              1.412               
O              9.266               -28.27              0.78                
O              10.48               -29.01              2.459               
H              12.226              -28.661             -1.48               
H              10.298              -26.737             -0.564              
H              12.314              -28.194             0.782               
H              11.773              -26.842             1.519               
N              13.265              -25.611             -1.114              
C              13.925              -24.35              -1.453              
C              13.129              -23.58              -2.499              
O              12.927              -22.363             -2.37               
C              15.347              -24.599             -1.946              
C              16.009              -23.366             -2.507              
C              16.523              -22.406             -1.659              
C              16.069              -23.161             -3.878              
C              17.122              -21.262             -2.164              
C              16.678              -22.005             -4.389              
C              17.191              -21.077             -3.531              
H              13.693              -26.533             -1.205              
H              13.929              -23.789             -0.618              
H              15.886              -24.91              -1.181              
H              15.308              -25.275             -2.664              
H              16.468              -22.53              -0.671              
H              15.684              -23.829             -4.504              
H              17.499              -20.577             -1.532              
H              16.724              -21.881             -5.393              
H              17.63               -20.239             -3.889              
N              12.66               -24.275             -3.544              
C              11.897              -23.599             -4.593              
C              10.613              -22.994             -4.051              
O              10.156              -21.965             -4.565              
C              11.592              -24.571             -5.741              
C              12.825              -24.891             -6.586              
H              12.876              -25.277             -3.539              
H              12.467              -22.837             -4.928              
H              11.249              -25.42              -5.353              
H              10.906              -24.157             -6.33               
O              13.8                -24.144             -6.601              
N              12.773              -26.017             -7.306              
H              11.953              -26.587             -7.271              
H              13.548              -26.282             -7.873              
N              10.017              -23.615             -3.027              
C              8.819               -23.064             -2.4                
C              9.123               -21.739             -1.714              
O              8.326               -20.796             -1.798              
C              8.254               -24.044             -1.379              
C              7.223               -25.064             -1.792              
C              6.937               -25.901             -0.569              
C              5.971               -24.347             -2.262              
H              10.47               -24.496             -2.729              
H              8.129               -22.902             -3.115              
H              9.042               -24.553             -0.983              
H              7.851               -23.494             -0.625              
H              7.591               -25.636             -2.507              
H              6.586               -25.319             0.168               
H              6.253               -26.601             -0.787              
H              7.778               -26.35              -0.259              
H              6.192               -23.76              -3.043              
H              5.282               -25.019             -2.538              
H              5.606               -23.785             -1.518              
N              10.247              -21.666             -0.993              
C              10.671              -20.399             -0.392              
C              12.063              -20.538             0.243               
C              12.027              -21.502             1.428               
C              12.536              -19.17              0.714               
C              13.393              -21.73              2.067               
H              10.769              -22.549             -0.902              
H              9.972               -20.165             0.285               
H              12.678              -20.916             -0.444              
H              11.409              -21.137             2.118               
H              11.677              -22.38              1.111               
H              13.451              -19.25              1.105               
H              12.559              -18.54              -0.061              
H              11.908              -18.821             1.407               
H              13.747              -20.858             2.396               
H              13.294              -22.366             2.829               
H              14.012              -22.112             1.385               
H              10.6595             -19.6098            -1.14387            
H              12.4803             -35.8976            5.0999              
