174
4.xyz
C              10.655              -19.3               -1.439              
O              10.066              -18.231             -1.241              
N              11.288              -19.565             -2.582              
C              11.373              -18.583             -3.66               
C              9.995               -18.295             -4.246              
O              9.58                -17.133             -4.342              
C              12.333              -19.087             -4.751              
C              12.283              -18.184             -5.972              
C              13.741              -19.2               -4.19               
H              11.707              -20.513             -2.637              
H              11.732              -17.725             -3.274              
H              12.018              -19.987             -5.04               
H              11.841              -18.667             -6.728              
H              11.762              -17.358             -5.757              
H              13.213              -17.93              -6.239              
H              14.21               -18.323             -4.294              
H              13.693              -19.442             -3.221              
H              14.24               -19.909             -4.688              
N              9.28                -19.349             -4.685              
C              8.04                -19.156             -5.438              
C              6.951               -18.52              -4.578              
O              6.157               -17.709             -5.075              
C              7.563               -20.49              -6.018              
O              7.153               -21.406             -5.011              
H              9.676               -20.27              -4.448              
H              8.235               -18.529             -6.203              
H              6.79                -20.317             -6.63               
H              8.313               -20.9               -6.54               
H              7.522               -21.116             -4.13               
N              6.89                -18.876             -3.292              
C              5.889               -18.269             -2.418              
C              6.098               -16.769             -2.33               
O              5.128               -16                 -2.321              
C              5.944               -18.855             -1.009              
C              5.421               -20.259             -0.922              
H              7.574               -19.576             -2.992              
H              4.992               -18.42              -2.847              
H              6.899               -18.845             -0.704              
H              5.4                 -18.268             -0.406              
O              4.725               -20.755             -1.807              
N              5.746               -20.908             0.185               
H              6.292               -20.48              0.899               
H              5.434               -21.861             0.313               
N              7.363               -16.346             -2.25               
C              7.696               -14.933             -2.1                
C              7.386               -14.161             -3.385              
O              6.846               -13.038             -3.336              
C              9.167               -14.81              -1.701              
S              9.678               -13.142             -1.342              
H              8.075               -17.101             -2.303              
H              7.129               -14.55              -1.364              
H              9.311               -15.375             -0.891              
H              9.717               -15.162             -2.457              
H              9.169               -12.493             -1.916              
N              7.708               -14.753             -4.543              
C              7.363               -14.133             -5.818              
C              5.852               -14.022             -5.96               
O              5.336               -13.013             -6.467              
C              7.953               -14.934             -6.986              
C              9.469               -15.11              -7.039              
C              9.813               -16.023             -8.192              
C              10.119              -13.748             -7.216              
H              8.203               -15.652             -4.451              
H              7.754               -13.208             -5.841              
H              7.547               -15.852             -6.959              
H              7.675               -14.48              -7.836              
H              9.777               -15.515             -6.185              
H              9.49                -15.621             -9.052              
H              10.806              -16.149             -8.241              
H              9.375               -16.915             -8.062              
H              9.875               -13.157             -6.446              
H              11.114              -13.853             -7.252              
H              9.799               -13.331             -8.068              
N              5.122               -15.026             -5.472              
C              3.67                -14.998             -5.595              
C              3.059               -13.916             -4.713              
O              2.183               -13.163             -5.157              
C              3.084               -16.359             -5.24               
C              1.586               -16.445             -5.388              
C              1.139               -17.906             -5.464              
C              1.63                -18.603             -6.744              
N              2.949               -19.302             -6.598              
H              5.652               -15.782             -5.024              
H              3.427               -14.806             -6.556              
H              3.503               -17.044             -5.838              
H              3.323               -16.561             -4.289              
H              1.147               -16.021             -4.6                
H              1.305               -15.984             -6.225              
H              1.509               -18.397             -4.68               
H              0.144               -17.94              -5.453              
H              0.932               -19.276             -7.029              
H              1.706               -17.91              -7.477              
H              3.669               -18.62              -6.488              
H              2.917               -19.894             -5.795              
H              3.121               -19.848             -7.415              
N              3.492               -13.836             -3.455              
C              2.796               -12.982             -2.501              
C              3.098               -11.503             -2.724              
O              2.215               -10.653             -2.546              
C              3.147               -13.379             -1.068              
C              2.371               -12.553             -0.076              
C              1.009               -12.757             0.095               
C              2.985               -11.55              0.663               
C              0.279               -11.996             0.989               
C              2.258               -10.78              1.56                
C              0.911               -11.015             1.716               
O              0.185               -10.252             2.602               
H              4.318               -14.402             -3.233              
H              1.8                 -13.119             -2.62               
H              2.912               -14.327             -0.941              
H              4.109               -13.217             -0.926              
H              0.545               -13.468             -0.439              
H              3.961               -11.381             0.549               
H              -0.703              -12.161             1.106               
H              2.712               -10.061             2.086               
H              -0.712              -10.67              2.735               
N              4.328               -11.172             -3.106              
C              4.801               -9.793              -3.101              
C              4.796               -9.187              -4.493              
O              5.034               -9.87               -5.49               
C              6.212               -9.714              -2.519              
C              6.246               -10.162             -1.082              
H              4.919               -11.977             -3.407              
H              4.151               -9.258              -2.542              
H              6.805               -10.304             -3.055              
H              6.519               -8.77               -2.571              
O              5.881               -9.402              -0.187              
N              6.625               -11.423             -0.854              
H              6.873               -12.008             -1.627              
H              6.66                -11.774             0.076               
N              4.533               -7.883              -4.543              
C              4.548               -7.16               -5.805              
C              5.97                -7.07               -6.346              
O              6.948               -7.099              -5.594              
C              3.966               -5.758              -5.631              
H              4.323               -7.444              -3.629              
H              3.983               -7.656              -6.472              
H              3.339               -5.564              -6.384              
H              3.473               -5.709              -4.764              
H              4.708               -5.089              -5.632              
N              6.073               -6.907              -7.67               
C              7.382               -6.933              -8.318              
C              8.28                -5.807              -7.845              
O              9.506               -5.97               -7.817              
C              7.241               -6.869              -9.837              
C              6.668               -8.129              -10.441             
C              6.683               -8.091              -11.968             
C              7.984               -8.635              -12.528             
N              8.143               -8.393              -13.982             
H              5.184               -6.768              -8.167              
H              7.829               -7.818              -8.108              
H              6.639               -6.107              -10.061             
H              8.146               -6.712              -10.226             
H              7.207               -8.919              -10.138             
H              5.72                -8.244              -10.135             
H              5.931               -8.647              -12.307             
H              6.576               -7.147              -12.265             
H              8.755               -8.205              -12.035             
H              8.023               -9.63               -12.352             
H              7.341               -7.905              -14.33              
H              8.963               -7.842              -14.142             
H              8.233               -9.268              -14.459             
N              7.712               -4.665              -7.476              
C              8.537               -3.521              -7.134              
C              7.819               -2.219              -7.519              
C              6.56                -1.948              -6.688              
O              6.098               -2.843              -5.949              
O              6.019               -0.821              -6.79               
H              6.684               -4.667              -7.456              
H              9.39                -3.59               -7.68               
H              8.453               -1.465              -7.383              
H              7.557               -2.282              -8.475              
H              8.83574             -3.50736            -6.0798             
H              10.6662             -20.0671            -0.708208           
