283
0.xyz
N              6.336               25.203              16.236              
C              7.421               24.614              15.447              
C              8.621               25.561              15.33               
O              8.44                26.771              15.199              
C              6.921               24.231              14.057              
O              7.87                23.447              13.353              
H              6.66                25.405              17.161              
H              7.733               23.78               15.92               
H              6.076               23.708              14.151              
H              6.743               25.065              13.537              
H              6.025               26.051              15.805              
H              5.569               24.562              16.29               
H              8.743               23.931              13.32               
N              9.842               25                  15.383              
C              11.106              25.74               15.287              
C              11.629              25.734              13.829              
O              11.195              24.881              13.053              
C              12.157              25.128              16.242              
O              12.431              23.78               15.856              
C              11.75               25.195              17.706              
H              9.812               23.951              15.503              
H              10.942              26.692              15.551              
H              13.02               25.667              16.164              
H              10.793              25.484              17.78               
H              11.853              24.292              18.13               
H              12.33               25.853              18.191              
H              11.647              23.187              16.069              
N              12.582              26.627              13.438              
C              13.104              26.59               12.059              
C              13.771              25.267              11.674              
O              13.697              24.889              10.506              
C              14.11               27.738              12.037              
C              13.674              28.653              13.118              
C              13.2                27.734              14.198              
H              12.363              26.821              11.397              
H              15.042              27.394              12.205              
H              14.1                28.2                11.143              
H              14.438              29.218              13.436              
H              12.933              29.249              12.802              
H              13.956              27.393              14.754              
H              12.521              28.172              14.787              
N              14.413              24.564              12.644              
C              15.048              23.262              12.398              
C              13.969              22.204              12.149              
O              14.086              21.447              11.188              
C              16.116              22.843              13.47               
C              16.852              21.52               13.108              
C              15.546              22.775              14.888              
C              17.771              21.558              11.887              
H              14.411              25.035              13.573              
H              15.557              23.357              11.545              
H              16.8                23.57               13.513              
H              17.391              21.239              13.911              
H              16.149              20.813              12.957              
H              16.29               22.631              15.536              
H              15.08               23.632              15.097              
H              14.899              22.018              14.947              
H              18.484              22.237              12.04               
H              18.18               20.658              11.762              
H              17.233              21.803              11.085              
N              12.892              22.201              12.971              
C              11.767              21.273              12.831              
C              11.095              21.426              11.465              
O              10.803              20.419              10.822              
C              10.748              21.46               13.965              
C              11.167              20.782              15.267              
C              10.341              21.214              16.456              
H              12.941              22.93               13.721              
H              12.129              20.337              12.891              
H              10.642              22.435              14.143              
H              9.875               21.07               13.679              
H              11.073              19.791              15.152              
H              12.128              21.003              15.444              
O              10.127              22.405              16.7                
N              9.904               20.252              17.257              
H              9.353               20.467              18.086              
H              10.128              19.283              17.03               
N              10.899              22.683              11.009              
C              10.296              23                  9.711               
C              11.158              22.464              8.571               
O              10.638              21.804              7.664               
C              10.069              24.517              9.561               
C              8.858               25.046              10.33               
C              7.559               24.389              9.923               
H              11.224              23.423              11.681              
H              9.404               22.54               9.665               
H              10.882              24.995              9.895               
H              9.936               24.725              8.591               
H              9.009               24.884              11.307              
H              8.787               26.032              10.167              
O              6.959               23.631              10.689              
N              7.113               24.638              8.7                 
H              6.256               24.22               8.355               
H              7.652               25.267              8.1                 
N              12.481              22.696              8.653               
C              13.431              22.218              7.658               
C              13.472              20.691              7.6                 
O              13.408              20.129              6.505               
C              14.832              22.791              7.915               
C              15.942              22.238              7.02                
C              15.791              22.702              5.582               
C              17.279              22.583              7.553               
H              12.76               23.249              9.495               
H              13.149              22.56               6.751               
H              14.79               23.772              7.767               
H              15.075              22.587              8.854               
H              15.913              21.234              7.051               
H              15.829              23.702              5.546               
H              16.532              22.322              5.027               
H              14.912              22.39               5.219               
H              17.403              22.199              8.477               
H              18.005              22.215              6.958               
H              17.392              23.583              7.608               
N              13.56               20.024              8.764               
C              13.615              18.562              8.803               
C              12.317              17.919              8.312               
O              12.383              16.919              7.601               
C              14.052              18.026              10.175              
C              15.414              18.522              10.689              
C              15.679              18.025              12.072              
C              16.558              18.135              9.766               
H              13.584              20.624              9.605               
H              14.368              18.254              8.202               
H              13.367              18.301              10.842              
H              14.102              17.036              10.114              
H              15.408              19.526              10.676              
H              15.684              17.02               12.086              
H              16.571              18.356              12.396              
H              14.967              18.351              12.702              
H              16.407              18.533              8.86                
H              17.421              18.478              10.14               
H              16.603              17.138              9.687               
N              11.151              18.525              8.625               
C              9.846               18.051              8.145               
C              9.784               18.117              6.611               
O              9.268               17.193              5.981               
C              8.696               18.854              8.773               
C              8.148               18.208              10.033              
C              7.169               19.026              10.853              
O              6.512               19.933              10.29               
O              7.039               18.736              12.064              
H              11.263              19.361              9.24                
H              9.7                 17.105              8.443               
H              9.048               19.734              9.015               
H              7.972               18.897              8.117               
H              7.68                17.364              9.769               
H              8.92                17.987              10.629              
N              10.346              19.195              6.023               
C              10.438              19.413              4.579               
C              11.301              18.308              3.945               
O              10.867              17.688              2.973               
C              11.004              20.814              4.282               
C              11.571              20.966              2.907               
H              10.726              19.891              6.725               
H              9.521               19.352              4.187               
H              10.268              21.491              4.401               
H              11.73               21.016              4.951               
N              10.758              21.211              1.817               
C              12.857              20.897              2.489               
C              11.569              21.276              0.774               
N              12.842              21.096              1.13                
H              9.788               21.314              1.822               
H              13.657              20.733              3.054               
H              11.268              21.44               -0.179              
N              12.509              18.055              4.502               
C              13.409              17                  4.016               
C              12.742              15.626              4.089               
O              12.827              14.861              3.133               
C              14.739              16.974              4.803               
C              15.744              18.053              4.467               
C              15.843              18.561              3.173               
C              16.633              18.52               5.429               
C              16.796              19.531              2.855               
C              17.585              19.492              5.111               
C              17.658              19.993              3.827               
H              12.74               18.677              5.306               
H              13.579              17.189              3.043               
H              14.514              17.057              5.771               
H              15.17               16.091              4.63                
H              15.229              18.233              2.463               
H              16.592              18.159              6.359               
H              16.843              19.882              1.913               
H              18.217              19.82               5.832               
H              18.338              20.695              3.598               
N              12.031              15.349              5.195               
C              11.349              14.076              5.434               
C              10.193              13.82               4.482               
O              10.073              12.705              3.983               
C              10.896              13.954              6.9                 
C              10.352              12.588              7.33                
C              11.466              11.577              7.502               
C              9.564               12.705              8.591               
H              12.008              16.143              5.886               
H              12.028              13.327              5.323               
H              11.682              14.157              7.477               
H              10.176              14.623              7.05                
H              9.708               12.263              6.631               
H              12.107              11.896              8.203               
H              11.082              10.695              7.783               
H              11.956              11.463              6.636               
H              8.786               13.329              8.461               
H              9.21                11.805              8.867               
H              10.142              13.064              9.332               
N              9.35                14.847              4.222               
C              8.214               14.744              3.302               
C              8.677               14.379              1.898               
O              8.04                13.548              1.247               
C              7.425               16.062              3.252               
C              6.287               16.144              4.253               
C              5.335               17.301              3.944               
N              6.045               18.53               3.566               
C              6.51                19.428              4.429               
N              6.33                19.262              5.734               
N              7.153               20.503              3.993               
H              9.587               15.723              4.741               
H              7.594               14.024              3.636               
H              8.059               16.807              3.438               
H              7.043               16.158              2.338               
H              5.758               15.298              4.231               
H              6.655               16.288              5.169               
H              4.743               17.02               3.193               
H              4.789               17.475              4.76                
H              6.188               18.702              2.583               
H              5.864               18.456              6.089               
H              6.67                19.959              6.375               
H              7.302               20.622              3.007               
H              7.487               21.187              4.636               
N              9.78                15.008              1.437               
C              10.376              14.778              0.119               
C              10.9                13.343              0.005               
O              10.761              12.724              -1.052              
C              11.516              15.774              -0.139              
C              11.065              17.156              -0.576              
C              12.255              18.023              -0.897              
O              12.588              18.259              -2.064              
N              12.916              18.535              0.133               
H              10.182              15.695              2.129               
H              9.657               14.896              -0.572              
H              12.051              15.871              0.706               
H              12.112              15.397              -0.856              
H              10.503              17.067              -1.389              
H              10.551              17.573              0.163               
H              13.738              19.119              -0.005              
H              12.585              18.334              1.078               
N              11.483              12.814              1.099               
C              12.005              11.444              1.148               
C              10.881              10.421              1.163               
O              10.969              9.417               0.452               
C              12.918              11.249              2.37                
C              14.227              12.025              2.342               
C              14.901              12.016              3.697               
C              15.136              11.531              1.253               
H              11.529              13.47               1.911               
H              12.568              11.291              0.326               
H              12.41               11.541              3.173               
H              13.139              10.283              2.428               
H              14.038              12.973              2.069               
H              15.098              11.073              3.971               
H              15.758              12.532              3.652               
H              14.299              12.437              4.378               
H              14.691              11.636              0.359               
H              15.992              12.056              1.254               
H              15.351              10.561              1.397               
N              9.813               10.689              1.956               
C              8.638               9.82                2.091               
C              7.863               9.657               0.785               
O              7.202               8.631               0.608               
C              7.722               10.272              3.242               
C              8.314               9.975               4.622               
C              7.285               9.567               5.65                
H              9.908               11.599              2.477               
H              8.965               8.903               2.372               
H              7.58                11.254              3.171               
H              6.854               9.791               3.168               
H              8.984               9.234               4.524               
H              8.787               10.8                4.946               
O              7.003               10.302              6.601               
N              6.754               8.355               5.528               
H              6.069               8.011               6.189               
H              7.051               7.768               4.746               
N              7.979               10.643              -0.144              
H              8.573               11.447              0.183               
H              7.54186             10.6201             -1.06547            
