178
2.xyz
C              -11.458             8.398               77.203              
C              -12.366             9.622               77.28               
O              -13.475             9.599               76.763              
C              -11.569             7.598               78.516              
O              -11.084             8.387               79.615              
C              -10.765             6.309               78.423              
H              -11.784             7.811               76.452              
H              -12.553             7.384               78.689              
H              -9.797              6.522               78.274              
H              -10.859             5.788               79.274              
H              -11.1               5.754               77.659              
H              -10.241             8.866               79.353              
N              -11.875             10.698              77.888              
C              -12.667             11.926              78.066              
C              -12.666             12.878              76.849              
O              -13.422             13.852              76.848              
C              -12.208             12.665              79.336              
C              -12.178             11.772              80.588              
C              -12.458             12.512              81.891              
O              -13.129             11.928              82.786              
O              -12.006             13.663              82.031              
H              -10.896             10.603              78.224              
H              -13.631             11.675              78.286              
H              -11.295             12.985              79.183              
H              -12.843             13.389              79.508              
H              -12.873             11.08               80.483              
H              -11.277             11.377              80.658              
N              -11.832             12.627              75.828              
C              -11.806             13.527              74.633              
C              -11.531             12.877              73.287              
O              -10.362             12.758              72.902              
C              -10.809             14.653              74.853              
H              -11.237             11.803              75.926              
H              -12.718             14.003              74.591              
H              -9.905              14.368              74.533              
H              -11.101             15.463              74.344              
H              -10.761             14.873              75.827              
N              -12.601             12.555              72.519              
C              -12.36              11.757              71.323              
C              -11.558             12.499              70.256              
O              -11.67              13.738              70.097              
C              -13.776             11.416              70.817              
C              -14.679             11.682              71.977              
C              -14.04              12.827              72.7                
H              -11.903             10.88               71.563              
H              -14.015             11.996              70.033              
H              -13.824             10.454              70.534              
H              -15.598             11.924              71.658              
H              -14.741             10.872              72.566              
H              -14.283             13.704              72.292              
H              -14.275             12.829              73.67               
N              -10.681             11.756              69.586              
C              -9.879              12.331              68.537              
C              -8.965              13.454              68.996              
O              -8.402              14.136              68.15               
H              -10.635             10.765              69.881              
H              -9.31               11.6                68.103              
H              -10.489             12.685              67.796              
N              -8.791              13.64               70.317              
C              -7.964              14.745              70.826              
C              -6.516              14.584              70.373              
O              -5.899              15.537              69.912              
C              -8.004              14.835              72.362              
C              -7.212              16.006              72.947              
C              -5.848              15.892              73.235              
C              -7.837              17.227              73.234              
C              -5.139              16.958              73.784              
C              -7.13               18.299              73.779              
C              -5.789              18.168              74.064              
O              -5.093              19.244              74.596              
H              -9.274              12.96               70.92               
H              -8.32               15.602              70.444              
H              -8.954              14.936              72.645              
H              -7.624              13.993              72.735              
H              -5.374              15.033              73.045              
H              -8.812              17.331              73.042              
H              -4.161              16.865              73.98               
H              -7.605              19.163              73.962              
H              -5.607              20.079              74.418              
N              -5.992              13.365              70.496              
C              -4.582              13.106              70.233              
C              -4.259              12.985              68.744              
O              -3.086              12.991              68.374              
C              -4.08               11.905              71.049              
C              -3.861              12.285              72.505              
C              -4.945              12.534              73.338              
C              -2.576              12.425              73.047              
C              -4.776              12.906              74.667              
C              -2.397              12.811              74.381              
C              -3.516              13.058              75.18               
O              -3.423              13.444              76.49               
H              -6.665              12.631              70.79               
H              -4.042              13.881              70.607              
H              -4.762              11.197              71.012              
H              -3.219              11.611              70.674              
H              -5.878              12.444              72.973              
H              -1.781              12.247              72.478              
H              -5.585              13.06               75.245              
H              -1.482              12.909              74.756              
H              -4.238              13.141              76.983              
N              -5.287              12.903              67.895              
C              -5.085              13.01               66.451              
C              -4.906              14.456              66.036              
O              -4.105              14.74               65.139              
C              -6.24               12.383              65.656              
C              -6.158              10.879              65.517              
C              -6.867              10.171              66.648              
O              -7.357              9.074               66.379              
O              -6.973              10.714              67.779              
H              -6.21               12.761              68.338              
H              -4.272              12.477              66.186              
H              -7.076              12.599              66.132              
H              -6.222              12.773              64.751              
H              -6.599              10.62               64.681              
H              -5.214              10.614              65.545              
N              -5.65               15.369              66.673              
C              -5.576              16.803              66.311              
C              -4.453              17.546              67.06               
O              -3.729              18.334              66.45               
C              -6.946              17.535              66.397              
C              -7.377              17.791              67.829              
C              -6.918              18.852              65.6                
H              -6.261              15.002              67.415              
H              -5.378              16.861              65.323              
H              -7.63               16.931              65.984              
H              -8.368              17.924              67.863              
H              -7.128              17.008              68.4                
H              -6.921              18.612              68.176              
H              -5.992              19.004              65.263              
H              -7.554              18.778              64.835              
H              -7.191              19.598              66.203              
N              -4.288              17.263              68.355              
C              -3.297              17.954              69.183              
C              -1.969              17.164              69.21               
O              -1.856              16.11               69.83               
C              -3.858              18.175              70.61               
C              -5.168              18.984              70.557              
C              -2.826              18.821              71.519              
C              -5.061              20.394              70.005              
H              -4.916              16.519              68.719              
H              -3.097              18.82               68.724              
H              -4.064              17.285              70.998              
H              -5.831              18.467              70.002              
H              -5.537              19.034              71.494              
H              -3.19               18.884              72.447              
H              -1.994              18.268              71.527              
H              -2.612              19.738              71.184              
H              -4.72               20.355              69.068              
H              -5.963              20.821              70.017              
H              -4.431              20.922              70.571              
N              -0.961              17.707              68.557              
C              0.283               16.986              68.307              
C              1.234               17.055              69.502              
O              1.963               16.097              69.769              
C              0.973               17.536              67.057              
C              0.178               17.432              65.762              
C              0.925               17.99               64.605              
N              0.169               17.893              63.365              
C              0.626               18.323              62.194              
N              1.732               19.053              62.108              
N              -0.067              18.062              61.088              
H              -1.123              18.687              68.236              
H              0.066               16.015              68.127              
H              1.179               18.505              67.215              
H              1.833               17.037              66.93               
H              -0.026              16.468              65.585              
H              -0.681              17.936              65.869              
H              1.128               18.954              64.784              
H              1.784               17.485              64.5                
H              -0.743              17.48               63.395              
H              2.253               19.273              62.932              
H              2.047               19.381              61.216              
H              -0.912              17.53               61.141              
H              0.258               18.397              60.204              
N              1.23                18.183              70.215              
H              0.581               18.916              69.867              
H              1.82188             18.31               71.0386             
H              -10.4579            8.68261             77.0014             
