193
1.xyz
C              -5.099              -4.465              5.837               
C              -6.18               -4.57               6.901               
O              -6.262              -5.579              7.617               
C              -3.847              -3.795              6.404               
O              -4.182              -2.507              6.943               
C              -2.787              -3.638              5.319               
H              -4.844              -5.394              5.55                
H              -3.477              -4.368              7.166               
H              -2.2                -4.45               5.299               
H              -3.23               -3.529              4.427               
H              -2.225              -2.83               5.509               
H              -4.657              -1.953              6.252               
N              -7.034              -3.545              6.992               
C              -8.144              -3.575              7.937               
C              -9.217              -4.547              7.473               
O              -9.797              -5.283              8.282               
C              -8.721              -2.166              8.1                 
C              -9.826              -1.971              9.143               
C              -9.289              -2.221              10.533              
C              -10.41              -0.57               9.048               
H              -6.84               -2.758              6.353               
H              -7.797              -3.884              8.829               
H              -7.967              -1.555              8.35                
H              -9.095              -1.885              7.215               
H              -10.569             -2.612              8.948               
H              -8.543              -1.581              10.729              
H              -10.019             -2.091              11.208              
H              -8.943              -3.159              10.6                
H              -10.798             -0.43               8.136               
H              -11.129             -0.459              9.735               
H              -9.689              0.105               9.21                
N              -9.498              -4.564              6.171               
C              -10.472             -5.516              5.646               
C              -10.041             -6.958              5.896               
O              -10.891             -7.827              6.129               
C              -10.69              -5.255              4.155               
C              -11.336             -3.891              3.878               
C              -11.385             -3.526              2.395               
O              -10.627             -4.125              1.598               
O              -12.185             -2.63               2.031               
H              -8.991              -3.879              5.598               
H              -11.37              -5.355              6.079               
H              -9.816              -5.259              3.716               
H              -11.297             -5.94               3.812               
H              -12.263             -3.92               4.206               
H              -10.803             -3.201              4.334               
N              -8.73               -7.224              5.864               
C              -8.226              -8.565              6.15                
C              -8.553              -8.986              7.58                
O              -8.837              -10.162             7.844               
C              -6.718              -8.621              5.9                 
H              -8.127              -6.42               5.626               
H              -8.662              -9.217              5.516               
H              -6.256              -8.919              6.733               
H              -6.529              -9.267              5.162               
H              -6.392              -7.713              5.642               
N              -8.515              -8.042              8.521               
C              -8.893              -8.378              9.889               
C              -10.382             -8.669              9.977               
O              -10.795             -9.649              10.613              
C              -8.511              -7.243              10.836              
C              -7.033              -6.877              10.774              
C              -6.712              -5.836              11.841              
C              -6.18               -8.131              10.964              
H              -8.214              -7.115              8.212               
H              -8.389              -9.203              10.167              
H              -9.028              -6.444              10.579              
H              -8.71               -7.532              11.756              
H              -6.825              -6.501              9.874               
H              -6.922              -6.21               12.744              
H              -5.741              -5.6                11.795              
H              -7.262              -5.016              11.683              
H              -6.389              -8.787              10.239              
H              -5.213              -7.883              10.922              
H              -6.383              -8.538              11.854              
N              -11.204             -7.834              9.334               
C              -12.646             -8.051              9.354               
C              -13.021             -9.395              8.741               
O              -14.036             -9.985              9.127               
C              -13.364             -6.922              8.612               
C              -13.702             -5.718              9.463               
C              -14.899             -5.655              10.175              
C              -12.835             -4.634              9.544               
C              -15.212             -4.547              10.951              
C              -13.142             -3.518              10.322              
C              -14.336             -3.478              11.011              
O              -14.641             -2.368              11.78               
H              -10.743             -7.055              8.843               
H              -12.953             -8.049              10.316              
H              -12.776             -6.618              7.861               
H              -14.217             -7.287              8.238               
H              -15.543             -6.419              10.126              
H              -11.974             -4.652              9.037               
H              -16.072             -4.523              11.468              
H              -12.499             -2.756              10.376              
H              -13.798             -2                  12.165              
N              -12.228             -9.887              7.788               
C              -12.539             -11.156             7.137               
C              -12.263             -12.369             8.013               
O              -12.684             -13.473             7.646               
C              -11.747             -11.302             5.837               
C              -12.366             -10.569             4.665               
C              -11.792             -11.072             3.354               
N              -10.336             -10.946             3.295               
C              -9.695              -9.872              2.836               
N              -10.376             -8.817              2.404               
N              -8.372              -9.85               2.812               
H              -11.404             -9.309              7.561               
H              -13.525             -11.157             6.885               
H              -10.835             -10.936             5.987               
H              -11.699             -12.269             5.609               
H              -13.348             -10.724             4.655               
H              -12.169             -9.597              4.737               
H              -12.042             -12.034             3.253               
H              -12.197             -10.539             2.613               
H              -9.783              -11.72              3.622               
H              -11.372             -8.802              2.434               
H              -9.88               -8.02               2.042               
H              -7.855              -10.638             3.159               
H              -7.886              -9.056              2.452               
N              -11.561             -12.214             9.135               
C              -11.253             -13.367             9.975               
C              -12.482             -13.746             10.785              
O              -12.94              -12.974             11.633              
C              -10.075             -13.078             10.898              
C              -8.852              -12.585             10.17               
C              -8.428              -13.529             9.066               
H              -11.269             -11.251             9.345               
H              -11.029             -14.137             9.375               
H              -10.351             -12.381             11.561              
H              -9.835              -13.92              11.385              
H              -9.05               -11.693             9.765               
H              -8.098              -12.498             10.82               
O              -8.328              -14.74              9.276               
N              -8.19               -12.98              7.873               
H              -7.888              -13.549             7.089               
H              -8.318              -11.976             7.764               
N              -13.001             -14.938             10.533              
C              -14.197             -15.432             11.194              
C              -13.801             -16.779             11.779              
O              -13.32              -17.638             11.053              
C              -15.35              -15.539             10.177              
C              -16.637             -16.104             10.772              
O              -16.965             -15.8               11.933              
O              -17.342             -16.843             10.05               
H              -12.475             -15.494             9.816               
H              -14.388             -14.83              11.953              
H              -15.535             -14.625             9.829               
H              -15.052             -16.135             9.44                
N              -13.989             -16.974             13.091              
C              -14.661             -16.078             14.038              
C              -13.741             -15.121             14.793              
O              -14.225             -14.463             15.716              
C              -15.291             -17.057             15.02               
C              -14.271             -18.153             15.103              
C              -13.681             -18.277             13.709              
H              -15.404             -15.554             13.562              
H              -15.427             -16.632             15.912              
H              -16.158             -17.405             14.673              
H              -13.556             -17.921             15.769              
H              -14.703             -19.016             15.381              
H              -12.695             -18.425             13.748              
H              -14.113             -19.021             13.2                
N              -12.464             -15.033             14.429              
C              -11.514             -14.345             15.299              
C              -11.743             -12.838             15.376              
O              -11.366             -12.226             16.386              
C              -10.08              -14.657             14.857              
C              -9.703              -16.128             15.07               
C              -9.961              -17.025             13.853              
O              -10.653             -16.605             12.901              
O              -9.459              -18.169             13.858              
H              -12.222             -15.467             13.535              
H              -11.567             -14.739             16.235              
H              -10.013             -14.473             13.9                
H              -9.473              -14.117             15.399              
H              -8.738              -16.172             15.267              
H              -10.245             -16.481             15.814              
N              -12.361             -12.221             14.362              
C              -12.608             -10.784             14.443              
C              -13.786             -10.429             15.344              
O              -13.894             -9.269              15.761              
C              -12.852             -10.193             13.046              
O              -14.093             -10.643             12.515              
H              -12.627             -12.814             13.575              
H              -11.779             -10.347             14.831              
H              -12.871             -9.202              13.117              
H              -12.118             -10.485             12.444              
H              -13.959             -11.522             12.061              
N              -14.665             -11.385             15.648              
H              -14.399             -12.337             15.377              
H              -5.46295            -3.93801            4.98755             
H              -15.533             -11.1456            16.1184             
