234
5.xyz
C              11.585              -15.641             -6.145              
O              12.393              -15.801             -5.185              
N              10.948              -14.491             -6.296              
C              11.206              -13.32              -5.385              
C              10.987              -13.743             -3.903              
O              11.664              -13.301             -2.997              
C              10.299              -12.143             -5.804              
H              10.269              -14.445             -7.07               
H              12.154              -13.041             -5.498              
H              10.72               -11.29              -5.509              
H              10.199              -12.149             -6.795              
H              9.408               -12.251             -5.371              
N              9.853               -14.459             -3.647              
C              9.507               -14.88              -2.296              
C              10.296              -16.122             -1.801              
O              10.16               -16.518             -0.646              
C              8.039               -15.167             -2.227              
S              7.044               -13.679             -2.515              
H              9.287               -14.662             -4.487              
H              9.716               -14.118             -1.657              
H              7.801               -15.828             -2.925              
H              7.815               -15.509             -1.324              
H              7.492               -12.894             -2.088              
N              11.123              -16.726             -2.638              
C              12.046              -17.783             -2.206              
C              13.397              -17.166             -1.874              
O              14.012              -17.438             -0.805              
C              12.223              -18.775             -3.377              
O              11.014              -19.391             -3.629              
C              13.233              -19.859             -3.102              
H              11.068              -16.394             -3.625              
H              11.676              -18.206             -1.379              
H              12.515              -18.241             -4.199              
H              12.791              -20.761             -3.132              
H              13.965              -19.835             -3.791              
H              13.642              -19.73              -2.193              
H              10.384              -18.786             -4.146              
N              13.862              -16.278             -2.755              
C              15.166              -15.593             -2.513              
C              15.12               -14.63              -1.334              
O              16.018              -14.619             -0.532              
C              15.625              -14.84              -3.772              
C              16.841              -13.978             -3.521              
C              17.991              -14.529             -2.938              
C              16.838              -12.628             -3.816              
C              19.08               -13.736             -2.671              
C              17.938              -11.82              -3.546              
C              19.053              -12.424             -2.98               
O              20.038              -11.554             -2.709              
H              13.281              -16.108             -3.577              
H              15.851              -16.311             -2.316              
H              15.851              -15.509             -4.467              
H              14.883              -14.255             -4.07               
H              18.009              -15.501             -2.719              
H              16.026              -12.215             -4.236              
H              19.901              -14.148             -2.242              
H              17.927              -10.858             -3.748              
H              20.849              -11.769             -3.26               
N              14.12               -13.749             -1.272              
C              13.988              -12.774             -0.237              
C              13.257              -13.288             0.992               
O              12.483              -14.276             0.923               
C              13.268              -11.557             -0.79               
C              14.039              -10.9               -1.907              
H              13.433              -13.847             -2.07               
H              14.926              -12.518             0.07                
H              12.381              -11.845             -1.141              
H              13.148              -10.897             -0.053              
O              14.991              -10.083             -1.626              
N              13.61               -11.096             -3.148              
H              12.793              -11.664             -3.297              
H              14.086              -10.689             -3.919              
N              13.547              -12.669             2.121               
C              12.87               -13.001             3.39                
C              11.509              -12.291             3.419               
O              11.299              -11.248             2.821               
C              13.663              -12.5               4.599               
C              14.982              -13.181             4.815               
C              14.864              -14.656             4.871               
O              14.097              -15.176             5.686               
O              15.62               -15.363             4.145               
H              14.281              -11.937             2.052               
H              12.735              -13.984             3.449               
H              13.834              -11.535             4.459               
H              13.104              -12.651             5.401               
H              15.577              -12.947             4.061               
H              15.355              -12.869             5.676               
N              10.548              -12.876             4.164               
C              9.197               -12.205             4.282               
C              9.177               -10.791             4.785               
O              8.274               -10.062             4.413               
C              8.493               -13.053             5.314               
C              9.176               -14.382             5.289               
C              10.579              -14.18              4.805               
H              8.715               -12.288             3.372               
H              8.56                -12.637             6.234               
H              7.512               -13.154             5.094               
H              9.171               -14.797             6.218               
H              8.672               -15.023             4.68                
H              11.234              -14.189             5.569               
H              10.846              -14.896             4.149               
N              10.216              -10.365             5.566               
C              10.223              -9.032              6.1                 
C              10.686              -7.982              5.046               
O              10.556              -6.78               5.271               
C              11.129              -8.947              7.301               
C              10.72               -9.748              8.517               
C              10.887              -11.25              8.402               
O              11.788              -11.743             7.677               
O              10.051              -11.939             9.055               
H              10.945              -11.074             5.713               
H              9.3                 -8.77               6.419               
H              12.034              -9.268              7.027               
H              11.181              -7.991              7.581               
H              11.274              -9.447              9.289               
H              9.757               -9.571              8.699               
N              11.24               -8.442              3.939               
C              11.681              -7.527              2.883               
C              10.545              -6.897              2.098               
O              9.523               -7.533              1.823               
C              12.669              -8.14               1.959               
O              12.077              -9.049              1.136               
H              11.335              -9.469              3.879               
H              12.21               -6.778              3.326               
H              13.098              -7.413              1.409               
H              13.388              -8.592              2.502               
H              11.788              -9.867              1.65                
N              10.784              -5.686              1.649               
C              9.828               -5.005              0.833               
C              9.584               -5.668              -0.519              
O              8.449               -5.681              -0.998              
C              10.166              -3.499              0.655               
C              9.072               -2.669              -0.051              
C              7.765               -2.779              0.73                
C              9.545               -1.228              -0.159              
H              11.701              -5.285              1.933               
H              8.934               -4.969              1.326               
H              10.297              -3.114              1.554               
H              10.984              -3.439              0.109               
H              8.943               -3.026              -0.969              
H              7.902               -2.431              1.657               
H              7.058               -2.241              0.272               
H              7.482               -3.737              0.771               
H              10.393              -1.192              -0.69               
H              8.844               -0.678              -0.615              
H              9.711               -0.86               0.757               
N              10.611              -6.209              -1.178              
C              10.447              -6.823              -2.476              
C              9.516               -8.054              -2.351              
O              8.702               -8.352              -3.276              
C              11.81               -7.25               -3.039              
C              12.638              -5.966              -3.256              
C              11.668              -8.02               -4.339              
C              14.093              -6.121              -3.022              
H              11.522              -6.147              -0.677              
H              9.958               -6.169              -3.051              
H              12.269              -7.792              -2.363              
H              12.474              -5.657              -4.198              
H              12.269              -5.265              -2.636              
H              12.573              -8.274              -4.68               
H              11.13               -8.847              -4.182              
H              11.207              -7.45               -5.018              
H              14.473              -6.812              -3.644              
H              14.565              -5.249              -3.181              
H              14.263              -6.411              -2.076              
N              9.617               -8.759              -1.221              
C              8.777               -9.921              -0.917              
C              7.296               -9.467              -0.913              
O              6.441               -10.093             -1.562              
C              9.203               -10.572             0.391               
C              8.522               -11.859             0.773               
C              7.194               -11.881             1.214               
C              9.215               -13.088             0.765               
C              6.569               -13.088             1.543               
C              8.609               -14.265             1.176               
C              7.299               -14.275             1.546               
O              6.738               -15.474             1.916               
H              10.355              -8.407              -0.564              
H              8.886               -10.592             -1.642              
H              10.199              -10.748             0.343               
H              9.048               -9.905              1.138               
H              6.685               -11.028             1.296               
H              10.164              -13.101             0.453               
H              5.595               -13.098             1.775               
H              9.152               -15.117             1.198               
H              7.144               -16.208             1.374               
N              7.032               -8.399              -0.175              
C              5.619               -7.878              0.003               
C              5.096               -7.381              -1.336              
O              3.99                -7.627              -1.722              
C              5.664               -6.77               1.032               
C              6.091               -7.306              2.375               
C              6.548               -6.242              3.356               
C              7.391               -6.895              4.418               
N              7.506               -5.91               5.54                
H              7.84                -7.942              0.271               
H              5.059               -8.635              0.324               
H              6.32                -6.093              0.739               
H              4.759               -6.383              1.119               
H              5.317               -7.814              2.79                
H              6.848               -7.967              2.243               
H              7.093               -5.577              2.874               
H              5.756               -5.834              3.777               
H              6.943               -7.706              4.747               
H              8.288               -7.083              4.063               
H              7.477               -6.4                6.409               
H              8.371               -5.419              5.457               
H              6.745               -5.266              5.489               
N              5.952               -6.696              -2.107              
C              5.587               -6.208              -3.438              
C              5.225               -7.363              -4.387              
O              4.24                -7.265              -5.202              
C              6.715               -5.364              -4.05               
C              6.909               -3.987              -3.39               
O              6.05                -3.501              -2.571              
O              7.935               -3.313              -3.801              
H              6.888               -6.544              -1.679              
H              4.757               -5.647              -3.334              
H              7.567               -5.875              -3.96               
H              6.507               -5.22               -5.014              
N              5.988               -8.466              -4.286              
C              5.719               -9.671              -5.108              
C              4.342               -10.24              -4.763              
O              3.559               -10.641             -5.649              
C              6.731               -10.749             -4.848              
H              6.758               -8.405              -3.605              
H              5.727               -9.403              -6.071              
H              7.589               -10.538             -5.323              
H              6.914               -10.82              -3.864              
H              6.387               -11.632             -5.178              
N              4.018               -10.27              -3.482              
H              4.73                -9.937              -2.822              
H              11.3854             -16.4241            -6.8381             
H              3.08682             -10.6156            -3.176              
