189
2.xyz
C              26.321              -11.976             -10.763             
O              26.354              -12.391             -9.583              
N              27.148              -10.994             -11.171             
C              28.026              -10.351             -10.215             
C              27.364              -9.36               -9.344              
O              27.815              -9.099              -8.225              
C              29.24               -9.733              -10.95              
O              28.871              -8.458              -11.503             
H              27.093              -10.765             -12.168             
H              28.427              -11.09              -9.625              
H              29.97               -9.601              -10.302             
H              29.505              -10.335             -11.684             
H              27.939              -8.513              -11.848             
N              26.228              -8.829              -9.818              
C              25.444              -7.841              -9.055              
C              24.52               -8.422              -7.986              
O              24.311              -7.781              -6.953              
C              24.672              -6.958              -10.053             
C              25.517              -6.001              -10.878             
C              24.701              -5.242              -11.93              
O              23.775              -5.813              -12.494             
O              25.01               -4.032              -12.178             
H              25.95               -9.169              -10.758             
H              26.088              -7.176              -8.617              
H              24.203              -7.564              -10.681             
H              24.027              -6.418              -9.532              
H              25.908              -5.332              -10.276             
H              26.199              -6.519              -11.359             
N              23.969              -9.612              -8.236              
C              23.012              -10.23              -7.333              
C              23.297              -11.694             -7.286              
O              22.511              -12.52              -7.653              
C              21.574              -9.963              -7.821              
C              20.463              -10.125             -6.773              
C              20.458              -8.98               -5.754              
C              19.139              -10.203             -7.507              
H              24.285              -10.052             -9.128              
H              23.139              -9.84               -6.422              
H              21.537              -9.026              -8.151              
H              21.382              -10.6               -8.559              
H              20.598              -10.995             -6.289              
H              20.313              -8.115              -6.232              
H              19.722              -9.129              -5.096              
H              21.336              -8.959              -5.278              
H              19.144              -10.988             -8.129              
H              18.393              -10.309             -6.847              
H              18.996              -9.364              -8.035              
N              24.547              -12.06              -6.877              
C              24.906              -13.45              -7.025              
C              24.057              -14.432             -6.173              
O              23.863              -15.586             -6.578              
C              26.38               -13.47              -6.532              
C              26.491              -12.327             -5.617              
C              25.6                -11.262             -6.265              
H              24.873              -13.739             -8.006              
H              26.569              -14.342             -6.069              
H              27                  -13.385             -7.318              
H              26.149              -12.547             -4.706              
H              27.429              -11.993             -5.555              
H              25.235              -10.645             -5.574              
H              26.112              -10.747             -6.948              
N              23.531              -13.972             -5.041              
C              22.828              -14.86              -4.101              
C              21.477              -15.286             -4.719              
O              21.015              -16.42              -4.555              
C              22.594              -14.158             -2.776              
C              23.829              -13.904             -1.965              
O              24.95               -14.079             -2.5                
O              23.716              -13.306             -0.831              
H              23.654              -12.957             -4.878              
H              23.375              -15.688             -4.009              
H              22.146              -13.277             -2.969              
H              21.961              -14.723             -2.235              
N              20.895              -14.406             -5.538              
C              19.662              -14.801             -6.293              
C              19.963              -15.984             -7.212              
O              19.267              -16.969             -7.171              
C              19.135              -13.622             -7.15               
C              18.049              -13.946             -8.1                
C              18.309              -14.432             -9.353              
C              16.683              -13.749             -7.746              
C              17.268              -14.716             -10.259             
C              15.674              -14.016             -8.648              
C              15.979              -14.525             -9.901              
O              14.975              -14.842             -10.822             
H              21.329              -13.491             -5.609              
H              18.977              -15.083             -5.622              
H              18.815              -12.913             -6.51               
H              19.922              -13.254             -7.661              
H              19.253              -14.596             -9.652              
H              16.474              -13.416             -6.835              
H              17.511              -15.064             -11.174             
H              14.716              -13.843             -8.402              
H              15.006              -14.18              -11.564             
N              21.067              -15.915             -7.981              
C              21.347              -16.939             -8.948              
C              21.844              -18.257             -8.279              
O              21.678              -19.357             -8.87               
C              22.356              -16.459             -9.953              
C              21.904              -15.343             -10.834             
C              21.176              -15.633             -11.989             
C              22.119              -14.008             -10.489             
C              20.805              -14.626             -12.849             
C              21.719              -12.963             -11.317             
C              21.025              -13.287             -12.495             
O              20.512              -12.373             -13.391             
H              21.658              -15.087             -7.806              
H              20.5                -17.168             -9.449              
H              23.18               -16.154             -9.457              
H              22.615              -17.237             -10.541             
H              20.926              -16.579             -12.187             
H              22.573              -13.796             -9.621              
H              20.376              -14.835             -13.731             
H              21.913              -12.026             -11.092             
H              20.796              -11.456             -13.12              
N              22.339              -18.167             -7.032              
C              22.627              -19.362             -6.196              
C              21.395              -20.05              -5.689              
O              21.456              -21.284             -5.418              
C              23.508              -19.006             -4.969              
C              24.927              -18.561             -5.301              
C              25.722              -17.98              -4.109              
C              25.689              -19.737             -5.92               
H              22.504              -17.197             -6.701              
H              23.161              -20.01              -6.77               
H              23.06               -18.264             -4.49               
H              23.565              -19.815             -4.403              
H              24.892              -17.858             -6.034              
H              25.792              -18.676             -3.399              
H              26.631              -17.72              -4.424              
H              25.24               -17.182             -3.759              
H              25.223              -20.029             -6.754              
H              26.62               -19.448             -6.139              
H              25.716              -20.493             -5.267              
N              20.28               -19.306             -5.605              
C              19.083              -19.734             -4.909              
C              17.994              -20.152             -5.901              
O              17.205              -21.059             -5.6                
C              18.562              -18.622             -3.974              
O              19.53               -18.298             -3.009              
C              17.259              -19.059             -3.248              
H              20.36               -18.379             -6.095              
H              19.306              -20.533             -4.337              
H              18.368              -17.79              -4.542              
H              16.478              -18.639             -3.704              
H              17.183              -20.052             -3.289              
H              17.301              -18.759             -2.298              
H              20.207              -17.645             -3.378              
N              18                  -19.599             -7.114              
C              16.845              -19.712             -8.024              
C              17.278              -20.51              -9.267              
O              18.199              -20.109             -9.993              
C              16.394              -18.266             -8.416              
C              15.932              -17.486             -7.178              
C              15.376              -18.271             -9.516              
C              14.77               -18.132             -6.424              
H              18.868              -19.092             -7.361              
H              16.172              -20.269             -7.551              
H              17.183              -17.803             -8.8                
H              16.706              -17.394             -6.553              
H              15.649              -16.573             -7.47               
H              15.18               -17.333             -9.81               
H              15.719              -18.79              -10.302             
H              14.525              -18.694             -9.197              
H              15.048              -19.038             -6.116              
H              14.537              -17.563             -5.64               
H              13.988              -18.205             -7.037              
N              16.58               -21.627             -9.518              
C              16.789              -22.549             -10.641             
C              15.946              -23.829             -10.383             
C              16.054              -24.971             -11.38              
C              15.202              -26.136             -11.027             
C              15.299              -27.281             -12.01              
N              14.432              -28.416             -11.613             
H              15.816              -21.801             -8.792              
H              17.765              -22.828             -10.649             
H              16.206              -24.179             -9.468              
H              14.975              -23.541             -10.33              
H              15.79               -24.623             -12.292             
H              17.021              -25.261             -11.429             
H              15.468              -26.482             -10.117             
H              14.237              -25.845             -10.981             
H              15.022              -26.956             -12.919             
H              16.252              -27.594             -12.055             
H              13.797              -28.118             -10.898             
H              13.913              -28.734             -12.406             
H              14.998              -29.163             -11.264             
H              16.542              -22.1052            -11.6076            
H              25.637              -12.3725            -11.4624            
