328
6.xyz
C              0.233               -12.392             21.537              
C              -1.081              -11.725             21.15               
O              -1.778              -12.198             20.24               
C              0.019               -13.302             22.742              
C              -1.049              -14.336             22.536              
C              -1.246              -15.228             23.745              
H              0.545               -12.939             20.748              
H              0.882               -13.771             22.944              
H              -0.235              -12.733             23.53               
H              -1.919              -13.877             22.34               
H              -0.801              -14.914             21.755              
O              -0.582              -15.092             24.773              
N              -2.172              -16.179             23.607              
H              -2.356              -16.833             24.373              
H              -2.687              -16.243             22.738              
N              -1.448              -10.637             21.838              
C              -2.686              -9.948              21.494              
C              -2.624              -9.353              20.089              
O              -3.588              -9.457              19.322              
C              -2.981              -8.854              22.517              
C              -3.596              -9.383              23.796              
O              -4.063              -10.541             23.839              
O              -3.642              -8.596              24.761              
H              -0.811              -10.352             22.587              
H              -3.421              -10.638             21.488              
H              -2.122              -8.4                22.739              
H              -3.613              -8.206              22.102              
N              -1.497              -8.728              19.729              
C              -1.339              -8.233              18.359              
C              -1.488              -9.373              17.353              
O              -2.219              -9.254              16.363              
C              0.028               -7.565              18.191              
C              0.071               -6.123              18.606              
C              -0.458              -5.138              17.786              
C              0.689               -5.742              19.782              
C              -0.407              -3.8                18.149              
C              0.756               -4.402              20.152              
C              0.205               -3.433              19.332              
H              -0.789              -8.632              20.463              
H              -2.096              -7.596              18.19               
H              0.678               -8.064              18.748              
H              0.273               -7.616              17.231              
H              -0.885              -5.391              16.919              
H              1.095               -6.436              20.379              
H              -0.816              -3.106              17.545              
H              1.21                -4.146              21.02               
H              0.248               -2.468              19.593              
N              -0.8                -10.495             17.598              
C              -0.87               -11.619             16.665              
C              -2.285              -12.17              16.558              
O              -2.74               -12.539             15.462              
C              0.128               -12.704             17.061              
C              1.554               -12.311             16.744              
H              -0.245              -10.493             18.461              
H              -0.621              -11.264             15.755              
H              0.051               -12.861             18.04               
H              -0.094              -13.534             16.559              
O              1.796               -11.489             15.86               
N              2.504               -12.9               17.452              
H              2.26                -13.575             18.153              
H              3.465               -12.677             17.292              
N              -3.008              -12.216             17.678              
C              -4.395              -12.669             17.642              
C              -5.249              -11.737             16.796              
O              -6.078              -12.197             16.003              
C              -4.937              -12.769             19.07               
O              -4.242              -13.812             19.76               
C              -6.442              -13.074             19.096              
H              -2.52               -11.916             18.532              
H              -4.42               -13.587             17.228              
H              -4.756              -11.892             19.556              
H              -6.582              -14.063             19.054              
H              -6.84               -12.716             19.941              
H              -6.883              -12.641             18.31               
H              -3.321              -13.505             20.024              
N              -5.061              -10.422             16.951              
C              -5.801              -9.46               16.142              
C              -5.589              -9.712              14.647              
O              -6.553              -9.799              13.87               
C              -5.392              -8.043              16.54               
C              -6.064              -6.977              15.707              
S              -5.433              -5.334              16.106              
C              -3.886              -5.336              15.214              
H              -4.369              -10.161             17.67               
H              -6.783              -9.572              16.337              
H              -5.629              -7.895              17.506              
H              -4.395              -7.952              16.438              
H              -5.917              -7.187              14.719              
H              -7.072              -7.021              15.861              
H              -3.125              -5.226              15.856              
H              -3.78               -6.203              14.723              
H              -3.874              -4.581              14.556              
N              -4.334              -9.844              14.224              
C              -4.065              -10.082             12.806              
C              -4.649              -11.42              12.353              
O              -5.311              -11.507             11.307              
C              -2.56               -10.033             12.552              
C              -1.946              -8.686              12.803              
C              -2.472              -7.549              12.219              
C              -0.841              -8.555              13.637              
C              -1.903              -6.3                12.455              
C              -0.272              -7.311              13.876              
C              -0.803              -6.185              13.282              
H              -3.609              -9.768              14.944              
H              -4.549              -9.366              12.292              
H              -2.128              -10.684             13.159              
H              -2.405              -10.268             11.604              
H              -3.267              -7.614              11.623              
H              -0.452              -9.368              14.071              
H              -2.303              -5.486              12.015              
H              0.534               -7.241              14.487              
H              -0.396              -5.285              13.447              
N              -4.429              -12.474             13.143              
C              -4.876              -13.805             12.753              
C              -6.39               -13.868             12.61               
O              -6.896              -14.483             11.662              
C              -4.361              -14.826             13.769              
O              -2.927              -14.822             13.745              
C              -4.87               -16.226             13.449              
H              -3.932              -12.266             14.022              
H              -4.463              -14.032             11.86               
H              -4.662              -14.549             14.702              
H              -4.11               -16.8               13.137              
H              -5.276              -16.635             14.269              
H              -5.563              -16.178             12.727              
H              -2.571              -14.054             14.288              
N              -7.129              -13.251             13.543              
C              -8.585              -13.195             13.429              
C              -8.998              -12.609             12.087              
O              -9.916              -13.112             11.426              
C              -9.183              -12.319             14.535              
C              -9.059              -12.933             15.909              
H              -6.594              -12.835             14.319              
H              -8.921              -14.142             13.454              
H              -8.706              -11.442             14.53               
H              -10.151             -12.178             14.332              
O              -8.794              -14.123             16.05               
N              -9.277              -12.117             16.939              
H              -9.514              -11.159             16.777              
H              -9.205              -12.463             17.874              
N              -8.345              -11.515             11.685              
C              -8.697              -10.872             10.427              
C              -8.451              -11.812             9.252               
O              -9.274              -11.903             8.331               
C              -7.895              -9.578              10.296              
S              -8.372              -8.539              8.909               
H              -7.605              -11.186             12.318              
H              -9.678              -10.649             10.448              
H              -8.014              -9.055              11.141              
H              -6.93               -9.824              10.192              
H              -7.735              -8.677              8.148               
N              -7.344              -12.554             9.291               
C              -7.045              -13.48              8.204               
C              -7.988              -14.677             8.202               
O              -8.294              -15.216             7.133               
C              -5.596              -13.949             8.292               
C              -4.594              -12.823             8.29                
C              -4.829              -11.654             7.574               
C              -3.41               -12.929             9.003               
C              -3.906              -10.618             7.578               
C              -2.485              -11.914             9.011               
C              -2.737              -10.757             8.303               
O              -1.809              -9.746              8.321               
H              -6.75               -12.42              10.117              
H              -7.161              -12.988             7.329               
H              -5.485              -14.466             9.137               
H              -5.408              -14.535             7.508               
H              -5.674              -11.557             7.048               
H              -3.229              -13.768             9.525               
H              -4.086              -9.78               7.063               
H              -1.63               -12.009             9.526               
H              -0.936              -10.106             8.647               
N              -8.439              -15.116             9.377               
C              -9.337              -16.264             9.453               
C              -10.731             -15.895             8.962               
O              -11.355             -16.643             8.194               
C              -9.369              -16.818             10.889              
C              -8.054              -17.515             11.222              
C              -10.576             -17.732             11.098              
C              -7.983              -17.987             12.66               
H              -8.107              -14.589             10.2                
H              -8.977              -16.947             8.81                
H              -9.479              -16.049             11.511              
H              -7.948              -18.3               10.619              
H              -7.308              -16.875             11.06               
H              -10.61              -18.021             12.052              
H              -11.41              -17.235             10.869              
H              -10.49              -18.532             10.509              
H              -8.724              -18.634             12.832              
H              -7.104              -18.433             12.818              
H              -8.075              -17.202             13.27               
N              -11.247             -14.74              9.404               
C              -12.648             -14.425             9.14                
C              -12.878             -13.965             7.707               
O              -13.899             -14.313             7.096               
C              -13.177             -13.362             10.112              
C              -14.611             -13.025             9.795               
C              -15.64              -13.879             10.176              
C              -14.937             -11.881             9.069               
C              -16.954             -13.603             9.855               
C              -16.248             -11.592             8.751               
C              -17.252             -12.454             9.143               
O              -18.558             -12.159             8.82                
H              -10.601             -14.134             9.916               
H              -13.194             -15.264             9.292               
H              -13.132             -13.727             11.023              
H              -12.633             -12.55              10.008              
H              -15.423             -14.711             10.693              
H              -14.208             -11.264             8.778               
H              -17.686             -14.226             10.134              
H              -16.472             -10.761             8.238               
H              -19.157             -12.857             9.208               
N              -11.955             -13.184             7.161               
C              -12.189             -12.482             5.908               
C              -11.59              -13.22              4.718               
O              -10.608             -13.954             4.842               
C              -11.625             -11.064             5.982               
C              -12.247             -10.252             7.104               
H              -11.066             -13.119             7.697               
H              -13.189             -12.453             5.763               
H              -10.644             -11.122             6.139               
H              -11.81              -10.605             5.118               
O              -13.378             -9.77               6.984               
N              -11.503             -10.076             8.192               
H              -10.582             -10.467             8.233               
H              -11.86              -9.555              8.965               
N              -12.201             -13.009             3.559               
C              -11.731             -13.652             2.344               
C              -10.361             -13.1               1.963               
O              -10.142             -11.885             2.027               
C              -12.718             -13.384             1.21                
C              -13.403             -14.631             0.673               
C              -14.646             -14.288             -0.152              
C              -14.273             -13.636             -1.474              
N              -15.399             -13.652             -2.46               
H              -13.012             -12.369             3.598               
H              -11.645             -14.639             2.505               
H              -13.422             -12.761             1.548               
H              -12.221             -12.951             0.459               
H              -12.762             -15.133             0.09                
H              -13.679             -15.212             1.44                
H              -15.144             -15.127             -0.339              
H              -15.209             -13.656             0.368               
H              -14.003             -12.682             -1.304              
H              -13.487             -14.124             -1.87               
H              -15.848             -12.761             -2.459              
H              -15.035             -13.846             -3.369              
H              -16.052             -14.36              -2.199              
N              -9.419              -13.959             1.57                
C              -8.1                -13.468             1.165               
C              -8.238              -12.443             0.054               
O              -9.095              -12.562             -0.825              
C              -7.393              -14.731             0.662               
C              -8.073              -15.839             1.372               
C              -9.51               -15.425             1.482               
H              -7.607              -13.083             1.951               
H              -7.496              -14.817             -0.333              
H              -6.416              -14.699             0.886               
H              -7.988              -16.7               0.856               
H              -7.67               -15.978             2.285               
H              -10.034             -15.696             0.676               
H              -9.94               -15.8               2.303               
N              -7.395              -11.419             0.108               
C              -7.45               -10.374             -0.885              
C              -8.497              -9.312              -0.638              
O              -8.521              -8.314              -1.371              
H              -6.726              -11.442             0.895               
H              -6.529              -9.924              -0.953              
H              -7.613              -10.794             -1.808              
N              -9.377              -9.499              0.347               
C              -10.275             -8.432              0.768               
C              -9.467              -7.23               1.242               
O              -8.351              -7.364              1.751               
C              -11.126             -8.89               1.954               
C              -12.392             -9.617              1.544               
O              -12.722             -9.645              0.342               
O              -13.072             -10.15              2.455               
H              -9.363              -10.442             0.771               
H              -10.791             -8.139              -0.041              
H              -10.571             -9.503              2.511               
H              -11.377             -8.083              2.482               
N              -10.067             -6.047              1.116               
C              -9.385              -4.829              1.542               
C              -8.986              -4.883              3.015               
O              -7.873              -4.48               3.369               
C              -10.274             -3.62               1.29                
C              -10.101             -3.046              -0.097              
O              -9.44               -3.676              -0.951              
O              -10.651             -1.959              -0.331              
H              -11.011             -6.07               0.71                
H              -8.53               -4.763              1.008               
H              -11.221             -3.904              1.403               
H              -10.042             -2.92               1.958               
N              -9.885              -5.349              3.892               
C              -9.548              -5.409              5.318               
C              -8.339              -6.304              5.558               
O              -7.541              -6.052              6.47                
C              -10.771             -5.816              6.172               
C              -10.504             -5.59               7.67                
C              -11.191             -7.254              5.881               
C              -10.496             -4.128              8.096               
H              -10.78              -5.643              3.496               
H              -9.275              -4.478              5.579               
H              -11.536             -5.237              5.906               
H              -11.207             -6.074              8.191               
H              -9.614              -5.991              7.891               
H              -12.027             -7.463              6.384               
H              -11.354             -7.36               4.902               
H              -10.465             -7.876              6.167               
H              -11.385             -3.724              7.892               
H              -10.317             -4.074              9.076               
H              -9.781              -3.646              7.594               
N              -8.163              -7.342              4.732               
C              -6.998              -8.211              4.865               
C              -7.204              -9.518              4.074               
C              -5.933              -10.358             4.068               
C              -8.364              -10.307             4.663               
H              -8.898              -7.465              4.021               
H              -6.902              -8.459              5.835               
H              -7.395              -9.272              3.127               
H              -6.174              -11.327             4.12                
H              -5.424              -10.186             3.225               
H              -5.368              -10.113             4.855               
H              -9.207              -10.063             4.183               
H              -8.186              -11.285             4.555               
H              -8.454              -10.086             5.634               
H              -6.0903             -7.68605            4.55836             
H              0.986367            -11.6758            21.7568             
