201
5.xyz
C              -0.832              -0.04               29.112              
O              -0.032              0.073               30.051              
N              -1.803              0.851               28.893              
C              -1.963              2.007               29.771              
C              -2.272              1.593               31.201              
O              -1.877              2.29                32.142              
C              -3.075              2.906               29.236              
C              -2.699              3.629               27.945              
C              -3.875              4.305               27.284              
O              -5.026              4.049               27.7                
O              -3.644              5.077               26.329              
H              -2.404              0.655               28.08               
H              -1.117              2.561               29.756              
H              -3.853              2.341               29.042              
H              -3.264              3.59                29.913              
H              -2.037              4.322               28.167              
H              -2.341              2.963               27.316              
N              -2.98               0.483               31.387              
C              -3.397              0.015               32.703              
C              -2.402              -0.933              33.354              
O              -2.682              -1.428              34.448              
C              -4.734              -0.718              32.582              
C              -5.855              0.197               32.167              
H              -3.213              -0.029              30.502              
H              -3.463              0.833               33.303              
H              -4.635              -1.437              31.9                
H              -4.953              -1.116              33.469              
O              -5.734              1.427               32.27               
N              -6.968              -0.388              31.724              
H              -7.023              -1.386              31.689              
H              -7.742              0.168               31.43               
N              -1.265              -1.201              32.714              
C              -0.288              -2.174              33.209              
C              -0.91               -3.557              33.396              
O              -0.553              -4.306              34.307              
C              0.419               -1.683              34.471              
C              1.092               -0.358              34.26               
H              -1.129              -0.66               31.831              
H              0.424               -2.265              32.501              
H              -0.26               -1.591              35.193              
H              1.104               -2.358              34.727              
O              1.681               -0.115              33.203              
N              1                   0.519               35.247              
H              0.504               0.28                36.085              
H              1.424               1.421               35.162              
N              -1.84               -3.902              32.508              
C              -2.558              -5.171              32.609              
C              -1.633              -6.351              32.365              
O              -1.795              -7.42               32.976              
C              -3.673              -5.168              31.57               
C              -4.423              -6.472              31.389              
C              -5.512              -6.782              32.197              
C              -4.074              -7.368              30.379              
C              -6.224              -7.959              32.023              
C              -4.781              -8.556              30.196              
C              -5.851              -8.841              31.025              
O              -6.578              -9.992              30.864              
H              -2.006              -3.208              31.757              
H              -2.929              -5.248              33.544              
H              -4.342              -4.46               31.827              
H              -3.274              -4.917              30.68               
H              -5.788              -6.144              32.92               
H              -3.308              -7.157              29.777              
H              -7.004              -8.168              32.615              
H              -4.515              -9.191              29.475              
H              -7.387              -9.956              31.449              
N              -0.674              -6.189              31.461              
C              0.206               -7.287              31.105              
C              1.302               -7.463              32.144              
O              1.795               -6.495              32.731              
C              0.887               -6.994              29.775              
C              -0.032              -6.839              28.588              
C              -0.82               -7.898              28.135              
C              -0.078              -5.639              27.886              
C              -1.64               -7.752              27.015              
C              -0.88               -5.488              26.772              
C              -1.66               -6.537              26.34               
O              -2.451              -6.363              25.223              
H              -0.614              -5.243              31.049              
H              -0.338              -8.135              31.077              
H              1.415               -6.144              29.873              
H              1.526               -7.746              29.576              
H              -0.799              -8.773              28.615              
H              0.483               -4.87               28.198              
H              -2.206              -8.512              26.704              
H              -0.894              -4.614              26.277              
H              -2.941              -7.211              25.036              
N              1.719               -8.716              32.336              
C              2.936               -8.975              33.091              
C              4.179               -8.855              32.218              
O              5.223               -8.393              32.688              
C              2.869               -10.366             33.726              
C              3.943               -10.627             34.737              
C              5.065               -11.383             34.572              
C              3.998               -10.114             36.076              
N              5.806               -11.394             35.735              
C              5.173               -10.616             36.669              
C              3.163               -9.28               36.83               
C              5.53                -10.31              37.978              
C              3.522               -8.983              38.13               
C              4.692               -9.5                38.69               
H              1.127               -9.446              31.92               
H              3.005               -8.274              33.815              
H              1.995               -10.466             34.19               
H              2.962               -11.051             33.011              
H              5.319               -11.862             33.734              
H              6.662               -11.887             35.873              
H              2.326               -8.906              36.438              
H              6.379               -10.681             38.372              
H              2.933               -8.39               38.674              
H              4.915               -9.265              39.64               
N              4.106               -9.268              30.952              
C              5.297               -9.273              30.116              
C              4.946               -8.912              28.676              
O              3.775               -8.891              28.274              
C              6.04                -10.615             30.203              
C              5.198               -11.785             29.726              
H              3.175               -9.568              30.638              
H              5.907               -8.551              30.459              
H              6.856               -10.557             29.635              
H              6.293               -10.77              31.154              
O              4.493               -11.694             28.729              
N              5.285               -12.898             30.435              
H              5.878               -12.937             31.242              
H              4.759               -13.708             30.169              
N              6.001               -8.639              27.9                
C              5.84                -8.251              26.499              
C              5.195               -9.354              25.674              
O              4.423               -9.061              24.756              
C              7.2                 -7.891              25.9                
H              6.92                -8.725              28.37               
H              5.251               -7.43               26.458              
H              7.903               -8.475              26.301              
H              7.173               -8.03               24.912              
H              7.406               -6.934              26.099              
N              5.496               -10.623             25.986              
C              4.935               -11.714             25.199              
C              3.41                -11.697             25.219              
O              2.775               -11.978             24.196              
C              5.476               -13.061             25.676              
C              4.905               -14.255             24.914              
C              5.237               -14.238             23.428              
H              6.123               -10.743             26.786              
H              5.231               -11.592             24.242              
H              6.469               -13.07              25.563              
H              5.25                -13.177             26.644              
H              5.277               -15.095             25.312              
H              3.909               -14.253             25.018              
O              6.231               -13.647             23.003              
N              4.401               -14.896             22.63               
H              4.551               -14.917             21.626              
H              3.607               -15.38              23.043              
N              2.803               -11.364             26.362              
C              1.347               -11.312             26.42               
C              0.799               -10.272             25.455              
O              -0.242              -10.488             24.82               
C              0.884               -11.005             27.842              
C              1.206               -12.101             28.851              
C              0.563               -11.853             30.195              
O              0.313               -10.675             30.528              
O              0.297               -12.84              30.916              
H              3.424               -11.16              27.15               
H              0.967               -12.217             26.191              
H              1.343               -10.186             28.138              
H              -0.094              -10.896             27.825              
H              0.857               -12.949             28.502              
H              2.179               -12.121             28.982              
N              1.47                -9.132              25.354              
C              1.012               -8.07               24.467              
C              1.229               -8.444              23.001              
O              0.342               -8.247              22.157              
C              1.753               -6.79               24.826              
S              1.382               -5.416              23.756              
H              2.318               -9.065              25.94               
H              0.024               -7.94               24.611              
H              1.507               -6.545              25.764              
H              2.734               -6.98               24.779              
H              0.674               -4.835              24.17               
N              2.412               -8.964              22.68               
C              2.686               -9.482              21.335              
C              1.646               -10.515             20.917              
O              1.155               -10.501             19.775              
C              4.124               -10.029             21.258              
C              5.122               -8.874              21.369              
C              4.336               -10.84              19.97               
C              6.526               -9.308              21.706              
H              3.11                -8.972              23.446              
H              2.586               -8.701              20.71               
H              4.264               -10.632             22.032              
H              5.131               -8.382              20.498              
H              4.797               -8.25               22.081              
H              5.258               -11.217             19.97               
H              3.669               -11.579             19.936              
H              4.216               -10.241             19.184              
H              6.865               -9.923              20.995              
H              7.119               -8.505              21.762              
H              6.526               -9.784              22.585              
N              1.268               -11.408             21.839              
H              1.755               -11.339             22.743              
H              0.549837            -12.0908            21.6294             
H              -0.775463           -0.86502            28.4426             
