338
7.xyz
C              -5.734              -7.48               4.438               
O              -4.693              -7.575              5.097               
N              -5.799              -6.748              3.322               
C              -4.651              -5.956              2.895               
C              -4.278              -4.917              3.944               
O              -3.092              -4.65               4.169               
C              -4.94               -5.275              1.556               
C              -5.237              -6.202              0.38                
C              -5.643              -5.404              -0.85               
C              -4.023              -7.066              0.097               
H              -6.692              -6.793              2.816               
H              -3.865              -6.574              2.766               
H              -5.734              -4.686              1.679               
H              -4.143              -4.73               1.313               
H              -5.981              -6.822              0.633               
H              -4.9                -4.786              -1.108              
H              -5.833              -6.03               -1.607              
H              -6.464              -4.87               -0.646              
H              -3.804              -7.615              0.905               
H              -4.215              -7.675              -0.674              
H              -3.24               -6.484              -0.129              
N              -5.276              -4.31               4.587               
C              -4.985              -3.359              5.656               
C              -4.273              -4.041              6.814               
O              -3.257              -3.544              7.314               
C              -6.27               -2.684              6.129               
C              -6.924              -1.842              5.053               
S              -8.574              -1.324              5.537               
C              -8.234              0.106               6.547               
H              -6.221              -4.56               4.277               
H              -4.373              -2.65               5.286               
H              -6.921              -3.39               6.423               
H              -6.059              -2.093              6.914               
H              -6.33               -1.033              4.864               
H              -6.952              -2.381              4.186               
H              -9.094              0.556               6.799               
H              -7.753              -0.174              7.381               
H              -7.661              0.753               6.038               
N              -4.795              -5.188              7.256               
C              -4.135              -5.934              8.324               
C              -2.72               -6.345              7.926               
O              -1.793              -6.27               8.741               
C              -4.979              -7.145              8.719               
H              -5.665              -5.484              6.796               
H              -4.08               -5.347              9.143               
H              -4.39               -7.84               9.129               
H              -5.674              -6.864              9.379               
H              -5.422              -7.519              7.906               
N              -2.526              -6.763              6.671               
C              -1.192              -7.166              6.232               
C              -0.209              -5.997              6.283               
O              0.953               -6.17               6.676               
C              -1.257              -7.781              4.831               
C              -1.879              -9.168              4.809               
C              -2.005              -9.737              3.406               
O              -2.084              -10.978             3.271               
O              -2.033              -8.949              2.438               
H              -3.36               -6.774              6.075               
H              -0.853              -7.913              6.82                
H              -1.813              -7.195              4.273               
H              -0.339              -7.86               4.496               
H              -1.301              -9.774              5.324               
H              -2.785              -9.108              5.186               
N              -0.658              -4.796              5.911               
C              0.223               -3.637              5.992               
C              0.555               -3.309              7.44                
O              1.71                -3.01               7.766               
C              -0.419              -2.436              5.296               
H              -1.627              -4.767              5.581               
H              1.08                -3.846              5.505               
H              -0.602              -2.666              4.342               
H              -1.275              -2.206              5.756               
H              0.204               -1.657              5.339               
N              -0.445              -3.373              8.324               
C              -0.196              -3.115              9.739               
C              0.734               -4.164              10.332              
O              1.594               -3.843              11.164              
C              -1.52               -3.08               10.502              
C              -2.446              -1.905              10.185              
C              -3.803              -2.13               10.825              
C              -1.833              -0.633              10.711              
H              -1.365              -3.61               7.932               
H              0.243               -2.213              9.828               
H              -2.018              -3.916              10.289              
H              -1.312              -3.041              11.474              
H              -2.551              -1.833              9.196               
H              -3.698              -2.208              11.818              
H              -4.406              -1.359              10.615              
H              -4.208              -2.973              10.468              
H              -0.941              -0.479              10.279              
H              -2.433              0.145               10.508              
H              -1.708              -0.699              11.704              
N              0.571               -5.429              9.926               
C              1.419               -6.493              10.458              
C              2.864               -6.337              10                  
O              3.795               -6.594              10.77               
C              0.876               -7.869              10.064              
C              1.632               -9                  10.739              
C              1.245               -10.377             10.249              
O              0.53                -10.491             9.23                
O              1.667               -11.358             10.898              
H              -0.175              -5.575              9.234               
H              1.383               -6.481              11.467              
H              -0.055              -7.916              10.355              
H              0.987               -7.969              9.099               
H              2.596               -8.878              10.557              
H              1.442               -8.964              11.709              
N              3.076               -5.931              8.748               
C              4.437               -5.686              8.29                
C              5.106               -4.611              9.133               
O              6.26                -4.766              9.551               
C              4.426               -5.278              6.818               
C              5.799               -4.97               6.254               
C              5.712               -4.502              4.809               
C              7.078               -4.097              4.292               
N              7.025               -3.648              2.872               
H              2.238               -5.814              8.17                
H              4.968               -6.538              8.372               
H              4.029               -6.027              6.29                
H              3.856               -4.463              6.725               
H              6.225               -4.249              6.801               
H              6.364               -5.794              6.292               
H              5.367               -5.247              4.251               
H              5.107               -3.717              4.761               
H              7.434               -3.348              4.859               
H              7.702               -4.881              4.364               
H              6.076               -3.468              2.617               
H              7.564               -2.813              2.769               
H              7.4                 -4.364              2.285               
N              4.385               -3.518              9.402               
C              4.908               -2.451              10.252              
C              5.136               -2.948              11.674              
O              6.167               -2.649              12.289              
C              3.922               -1.285              10.246              
C              4.302               0.025               10.933              
C              5.668               0.504               10.466              
C              3.234               1.082               10.672              
H              3.447               -3.497              8.965               
H              5.79                -2.146              9.876               
H              3.718               -1.064              9.28                
H              3.066               -1.607              10.675              
H              4.322               -0.12               11.923              
H              5.65                0.653               9.477               
H              5.898               1.362               10.927              
H              6.358               -0.186              10.686              
H              2.356               0.765               11.032              
H              3.492               1.935               11.126              
H              3.154               1.238               9.687               
N              4.187               -3.72               12.206              
C              4.345               -4.301              13.537              
C              5.625               -5.116              13.631              
O              6.408               -4.958              14.578              
C              3.13                -5.17               13.856              
C              3.282               -6.023              15.093              
C              3.198               -5.458              16.364              
C              3.47                -7.394              14.983              
C              3.325               -6.252              17.498              
C              3.588               -8.184              16.116              
C              3.514               -7.613              17.365              
H              3.356               -3.866              11.61               
H              4.439               -3.533              14.182              
H              2.354               -4.571              13.996              
H              2.978               -5.776              13.088              
H              3.045               -4.482              16.464              
H              3.52                -7.815              14.077              
H              3.279               -5.825              18.409              
H              3.731               -9.185              16.013              
H              3.597               -8.184              18.188              
N              5.858               -5.996              12.65               
C              7.061               -6.819              12.668              
C              8.322               -5.972              12.554              
O              9.347               -6.3                13.162              
C              6.994               -7.882              11.569              
C              5.927               -8.952              11.815              
C              5.804               -9.892              10.623              
C              6.239               -9.726              13.087              
H              5.14                -6.034              11.915              
H              7.094               -7.321              13.543              
H              6.772               -7.431              10.721              
H              7.867               -8.336              11.529              
H              5.046               -8.501              11.975              
H              6.681               -10.347             10.465              
H              5.102               -10.579             10.811              
H              5.549               -9.368              9.81                
H              6.256               -9.098              13.866              
H              5.535               -10.422             13.237              
H              7.132               -10.17              12.998              
N              8.265               -4.878              11.795              
C              9.418               -3.99               11.715              
C              9.73                -3.371              13.072              
O              10.898              -3.298              13.472              
C              9.188               -2.92               10.647              
C              9.337               -3.461              9.234               
C              8.731               -2.558              8.173               
H              7.381               -4.727              11.299              
H              10.216              -4.539              11.437              
H              8.265               -2.559              10.747              
H              9.856               -2.191              10.773              
H              10.313              -3.574              9.034               
H              8.888               -4.356              9.184               
O              8.011               -1.607              8.478               
N              9.021               -2.861              6.913               
H              8.64                -2.31               6.145               
H              9.631               -3.653              6.724               
N              8.699               -2.947              13.808              
C              8.943               -2.279              15.083              
C              9.325               -3.269              16.177              
O              10.195              -2.975              17.007              
C              7.725               -1.45               15.498              
C              7.247               -0.462              14.433              
C              8.379               0.391               13.867              
C              8.682               1.59                14.747              
N              9.644               2.511               14.077              
H              7.77                -3.125              13.415              
H              9.7                 -1.62               14.965              
H              6.974               -2.075              15.7                
H              7.963               -0.932              16.318              
H              6.824               -0.976              13.681              
H              6.557               0.144               14.839              
H              9.199               -0.172              13.8                
H              8.113               0.717               12.964              
H              7.832               2.082               14.933              
H              9.078               1.272               15.608              
H              10.362              1.974               13.636              
H              9.16                3.052               13.391              
H              10.049              3.118               14.759              
N              8.699               -4.447              16.203              
C              9.062               -5.391              17.251              
C              10.424              -6.017              17.008              
O              11.033              -6.528              17.954              
C              7.976               -6.435              17.577              
C              7.746               -7.383              16.402              
C              6.696               -5.748              18.009              
C              7.03                -8.659              16.808              
H              8.005               -4.607              15.483              
H              9.138               -4.853              18.102              
H              8.294               -6.975              18.353              
H              7.202               -6.913              15.715              
H              8.63                -7.624              16.014              
H              6.024               -6.433              18.289              
H              6.884               -5.137              18.778              
H              6.326               -5.216              17.248              
H              6.14                -8.427              17.195              
H              6.908               -9.237              16.004              
H              7.578               -9.141              17.489              
N              10.944              -5.958              15.78               
C              12.299              -6.43               15.54               
C              13.308              -5.674              16.394              
O              14.386              -6.203              16.682              
C              12.644              -6.298              14.054              
C              14.008              -6.864              13.728              
H              10.328              -5.567              15.058              
H              12.335              -7.396              15.828              
H              11.958              -6.792              13.528              
H              12.632              -5.332              13.815              
O              14.346              -7.969              14.148              
N              14.808              -6.099              12.996              
H              14.497              -5.195              12.696              
H              15.72               -6.421              12.744              
N              12.962              -4.465              16.839              
C              13.847              -3.629              17.637              
C              13.423              -3.554              19.098              
O              13.832              -2.628              19.809              
C              13.916              -2.233              17.028              
C              14.328              -2.255              15.573              
C              14.199              -0.903              14.921              
O              15.224              -0.198              14.829              
O              13.073              -0.546              14.512              
H              11.995              -4.171              16.562              
H              14.794              -3.989              17.582              
H              13.021              -1.839              17.081              
H              14.588              -1.722              17.523              
H              15.272              -2.523              15.523              
H              13.738              -2.877              15.092              
N              12.605              -4.498              19.553              
C              12.232              -4.546              20.958              
C              13.5                -4.587              21.801              
O              14.382              -5.415              21.542              
C              11.398              -5.799              21.227              
C              10.738              -5.923              22.605              
C              9.651               -4.875              22.774              
C              10.173              -7.316              22.823              
H              12.271              -5.17               18.843              
H              11.727              -3.716              21.187              
H              10.665              -5.831              20.545              
H              11.994              -6.594              21.112              
H              11.436              -5.797              23.31               
H              8.952               -5                  22.069              
H              9.231               -4.97               23.677              
H              10.05               -3.961              22.688              
H              10.91               -7.991              22.762              
H              9.749               -7.369              23.728              
H              9.485               -7.513              22.123              
N              13.646              -3.71               22.789              
C              14.867              -3.714              23.593              
C              14.907              -4.938              24.486              
O              13.876              -5.515              24.837              
C              14.745              -2.435              24.426              
C              13.285              -2.21               24.533              
C              12.715              -2.649              23.205              
H              15.681              -3.67               23.005              
H              15.162              -2.564              25.33               
H              15.2                -1.67               23.964              
H              12.891              -2.753              25.282              
H              13.082              -1.239              24.7                
H              11.792              -3.01               23.308              
H              12.714              -1.901              22.545              
N              16.12               -5.342              24.842              
C              16.258              -6.438              25.783              
C              15.772              -6.002              27.164              
O              15.672              -4.808              27.464              
C              17.715              -6.889              25.85               
O              18.52               -5.821              26.362              
C              18.21               -7.255              24.463              
H              16.903              -4.838              24.416              
H              15.685              -7.203              25.477              
H              17.792              -7.678              26.493              
H              18.522              -8.208              24.452              
H              17.469              -7.146              23.795              
H              18.974              -6.658              24.204              
H              18.087              -5.414              27.173              
N              15.447              -6.998              27.992              
C              15.019              -6.836              29.394              
C              13.524              -6.575              29.546              
O              12.87               -7.163              30.412              
C              15.836              -5.774              30.15               
C              15.051              -5.072              31.248              
C              15.904              -4.144              32.084              
O              16.801              -3.487              31.514              
O              15.676              -4.07               33.311              
O              12.783              -5.824              28.914              
H              15.524              -7.956              27.543              
H              15.271              -7.671              29.915              
H              16.597              -6.23               30.57               
H              16.114              -5.095              29.499              
H              14.347              -4.531              30.824              
H              14.679              -5.758              31.848              
H              -6.61626            -7.99023            4.73604             
