259
2.xyz
C              0.861               13.459              26.824              
O              0.96                12.66               27.756              
N              1.293               13.186              25.591              
C              2.045               11.958              25.27               
C              3.294               11.846              26.133              
O              3.551               10.819              26.751              
C              2.442               11.918              23.788              
C              3.181               10.673              23.273              
C              2.258               9.46                23.288              
C              3.742               10.898              21.879              
H              1.058               13.906              24.878              
H              1.452               11.169              25.458              
H              1.603               12.008              23.245              
H              3.033               12.707              23.609              
H              3.968               10.499              23.862              
H              1.468               9.635               22.7                
H              2.754               8.66                22.95               
H              1.947               9.29                24.223              
H              4.386               11.664              21.896              
H              4.217               10.072              21.571              
H              2.995               11.107              21.246              
N              4.065               12.927              26.169              
C              5.228               13.025              27.033              
C              4.711               13.324              28.45               
O              3.517               13.528              28.646              
C              6.172               14.114              26.503              
C              6.671               13.877              25.074              
C              7.21                15.151              24.447              
C              7.732               12.792              25.044              
H              3.763               13.693              25.526              
H              5.695               12.152              27.053              
H              5.68                14.971              26.508              
H              6.962               14.145              27.094              
H              5.909               13.528              24.52               
H              7.975               15.496              24.993              
H              7.526               14.96               23.517              
H              6.487               15.842              24.416              
H              7.348               11.936              25.396              
H              8.044               12.653              24.103              
H              8.509               13.065              25.614              
N              5.574               13.346              29.449              
C              5.086               13.539              30.823              
C              4.881               14.986              31.271              
O              4.894               15.232              32.474              
H              6.559               13.224              29.204              
H              4.2                 13.029              30.931              
H              5.739               13.08               31.471              
N              4.645               15.935              30.345              
C              5.039               17.358              30.573              
C              3.969               18.452              30.403              
O              4.121               19.321              29.534              
C              6.282               17.694              29.693              
C              6.034               17.396              28.2                
C              7.484               16.904              30.168              
C              7.099               17.936              27.255              
H              4.182               15.609              29.488              
H              5.345               17.4                31.554              
H              6.462               18.671              29.786              
H              5.973               16.404              28.086              
H              5.151               17.796              27.948              
H              8.29                17.166              29.638              
H              7.65                17.093              31.136              
H              7.314               15.926              30.048              
H              7.98                17.531              27.49               
H              6.856               17.697              26.318              
H              7.147               18.928              27.35               
N              2.922               18.478              31.282              
C              1.825               19.449              31.137              
C              2.227               20.895              31.357              
O              1.466               21.787              30.954              
C              0.819               19.017              32.209              
C              1.657               18.332              33.21               
C              2.693               17.595              32.435              
H              1.376               19.334              30.224              
H              0.36                19.817              32.598              
H              0.135               18.401              31.817              
H              2.083               19                  33.838              
H              1.102               17.696              33.766              
H              3.537               17.478              32.958              
H              2.364               16.7                32.13               
N              3.432               21.128              31.908              
C              3.948               22.493              32.009              
C              4.507               23.04               30.701              
O              4.826               24.223              30.633              
C              4.972               22.697              33.145              
C              6.318               22.054              32.911              
O              6.476               21.167              32.046              
O              7.255               22.449              33.627              
H              3.931               20.293              32.236              
H              3.164               23.088              32.269              
H              5.098               23.685              33.26               
H              4.571               22.319              33.981              
N              4.613               22.216              29.651              
C              5.255               22.688              28.406              
C              4.601               23.94               27.849              
O              5.266               24.925              27.567              
C              5.312               21.555              27.364              
C              6.059               21.987              26.111              
C              7.448               21.96               26.081              
C              5.382               22.477              25.027              
C              8.145               22.428              24.954              
C              6.056               22.933              23.893              
C              7.448               22.895              23.877              
O              8.107               23.371              22.769              
H              4.231               21.278              29.778              
H              6.221               22.9                28.621              
H              5.789               20.791              27.763              
H              4.39                21.322              27.109              
H              7.962               21.61               26.857              
H              4.379               22.514              25.034              
H              9.146               22.411              24.957              
H              5.552               23.279              23.112              
H              7.729               24.261              22.519              
N              3.266               23.921              27.697              
C              2.587               25.072              27.136              
C              2.406               26.215              28.14               
O              2.152               27.337              27.716              
C              1.218               24.748              26.546              
C              1.24                23.916              25.28               
C              2.211               24.043              24.291              
C              0.184               23.055              25.042              
C              2.173               23.26               23.131              
C              0.126               22.281              23.895              
C              1.121               22.38               22.934              
H              2.805               23.057              28.002              
H              3.175               25.435              26.393              
H              0.701               24.242              27.228              
H              0.764               25.606              26.332              
H              2.952               24.701              24.404              
H              -0.56               22.988              25.718              
H              2.908               23.346              22.454              
H              -0.651              21.641              23.761              
H              1.083               21.824              22.108              
N              2.649               25.954              29.414              
C              2.725               27.051              30.384              
C              3.925               27.924              30.053              
O              3.851               29.144              30.124              
C              2.92                26.574              31.818              
C              1.752               25.771              32.379              
O              0.641               25.758              31.793              
O              1.997               25.158              33.44               
H              2.774               24.965              29.656              
H              1.907               27.611              30.259              
H              3.739               26                  31.847              
H              3.057               27.377              32.398              
N              5.034               27.279              29.657              
C              6.312               27.948              29.451              
C              6.484               28.376              27.993              
O              6.978               29.464              27.729              
C              7.449               27.017              29.925              
C              7.414               26.898              31.456              
C              8.827               27.491              29.431              
C              8.27                25.795              32.007              
H              4.895               26.252              29.51               
H              6.281               28.793              29.994              
H              7.287               26.118              29.544              
H              7.711               27.773              31.842              
H              6.463               26.742              31.729              
H              9.519               26.834              29.717              
H              8.812               27.556              28.437              
H              9.025               28.384              29.826              
H              9.225               25.948              31.748              
H              8.197               25.778              33.005              
H              7.965               24.915              31.639              
N              6.06                27.526              27.065              
C              6.176               27.758              25.628              
C              4.816               28.237              25.084              
O              3.938               27.424              24.827              
C              6.689               26.483              24.922              
C              6.687               26.658              23.398              
C              8.09                26.154              25.427              
H              5.623               26.65               27.46               
H              6.837               28.49               25.477              
H              6.053               25.745              25.127              
H              5.854               27.134              23.124              
H              7.485               27.193              23.128              
H              6.721               25.76               22.965              
H              8.221               25.163              25.41               
H              8.764               26.594              24.835              
H              8.19                26.492              26.362              
N              4.679               29.551              24.926              
C              3.419               30.185              24.526              
C              3.107               30.004              23.062              
O              1.926               30.015              22.652              
C              3.461               31.716              24.801              
C              3.716               32.124              26.251              
C              2.782               31.455              27.222              
C              2.935               32.014              28.626              
N              2.024               31.336              29.577              
H              5.552               30.099              25.112              
H              2.669               29.778              25.078              
H              4.187               32.105              24.23               
H              2.579               32.098              24.514              
H              4.667               31.886              26.487              
H              3.613               33.123              26.325              
H              1.84                31.602              26.927              
H              2.98                30.478              27.25               
H              3.883               31.885              28.925              
H              2.728               32.995              28.609              
H              1.755               30.446              29.207              
H              2.491               31.204              30.452              
H              1.208               31.898              29.718              
N              4.15                29.884              22.236              
C              4                   29.844              20.789              
C              4.827               28.675              20.272              
O              5.972               28.866              19.84               
C              4.449               31.144              20.167              
C              3.514               32.28               20.506              
H              5.073               29.822              22.719              
H              3.047               29.637              20.594              
H              5.356               31.369              20.509              
H              4.471               31.037              19.177              
O              2.318               32.256              20.178              
N              4.047               33.263              21.184              
H              5.012               33.257              21.45               
H              3.48                34.058              21.453              
N              4.261               27.466              20.293              
C              5.025               26.307              19.819              
C              5.352               26.421              18.35               
O              4.604               27.031              17.578              
C              4.094               25.135              20.099              
C              2.752               25.724              20.275              
C              2.921               27.088              20.801              
H              5.864               26.189              20.371              
H              4.108               24.48               19.329              
H              4.388               24.64               20.929              
H              2.25                25.731              19.385              
H              2.195               25.15               20.91               
H              2.233               27.723              20.449              
H              2.916               27.117              21.802              
N              6.463               25.805              17.934              
C              6.836               25.757              16.547              
C              7.714               24.556              16.319              
O              8.482               24.164              17.216              
C              7.55                27.063              16.176              
C              7.82                27.251              14.698              
S              6.385               27.1                13.617              
C              5.27                28.344              14.272              
H              7.02                25.371              18.704              
H              6.005               25.647              15.996              
H              6.989               27.842              16.502              
H              8.434               27.1                16.672              
H              8.278               28.177              14.568              
H              8.561               26.576              14.415              
H              5.612               29.255              14.039              
H              4.36                28.219              13.876              
H              5.215               28.253              15.267              
N              7.657               23.981              15.145              
C              8.451               22.805              14.796              
C              7.785               21.523              15.283              
C              6.582               21.157              14.452              
O              5.584               21.895              14.49               
O              6.672               20.172              13.7                
H              6.993               24.43               14.467              
H              9.358               22.929              15.201              
H              8.452               20.79               15.226              
H              7.498               21.663              16.222              
H              8.58242             22.7669             13.7138             
H              0.428248            14.4208             27.0034             
