188
3.xyz
C              8.591               -3.724              0.045               
O              8.99                -4.656              -0.66               
N              7.94                -3.912              1.192               
C              7.506               -5.237              1.614               
C              6.551               -5.818              0.583               
O              6.631               -7.003              0.25                
C              6.853               -5.137              2.994               
O              7.835               -4.656              3.917               
C              6.303               -6.493              3.464               
H              7.774               -3.05               1.744               
H              8.31                -5.834              1.673               
H              6.096               -4.461              2.955               
H              5.328               -6.548              3.25                
H              6.79                -7.23               2.995               
H              6.434               -6.581              4.451               
H              7.623               -3.713              4.195               
N              5.657               -4.989              0.04                
C              4.734               -5.465              -0.98               
C              5.476               -5.909              -2.224              
O              5.166               -6.956              -2.806              
C              3.721               -4.376              -1.318              
C              2.772               -4.086              -0.166              
S              1.665               -2.715              -0.415              
C              0.724               -3.244              -1.795              
H              5.681               -4.023              0.395               
H              4.239               -6.261              -0.608              
H              4.21                -3.531              -1.547              
H              3.179               -4.666              -2.111              
H              2.245               -4.962              0.036               
H              3.348               -3.952              0.692               
H              -0.007              -2.581              -2.002              
H              1.309               -3.334              -2.611              
H              0.297               -4.138              -1.612              
N              6.47                -5.139              -2.657              
C              7.247               -5.554              -3.828              
C              7.891               -6.911              -3.591              
O              7.894               -7.783              -4.467              
C              8.347               -4.524              -4.085              
C              9.351               -4.889              -5.162              
C              8.74                -5.024              -6.517              
C              9.812               -5.181              -7.577              
N              9.968               -3.927              -8.369              
H              6.636               -4.279              -2.13               
H              6.628               -5.621              -4.618              
H              7.907               -3.658              -4.345              
H              8.847               -4.382              -3.223              
H              10.068              -4.176              -5.188              
H              9.795               -5.761              -4.906              
H              8.156               -5.83               -6.541              
H              8.21                -4.209              -6.728              
H              10.682              -5.398              -7.134              
H              9.558               -5.927              -8.193              
H              9.787               -4.12               -9.332              
H              9.32                -3.243              -8.036              
H              10.901              -3.585              -8.265              
N              8.479               -7.091              -2.412              
C              9.149               -8.351              -2.116              
C              8.157               -9.507              -2.12               
O              8.483               -10.623             -2.55               
C              9.857               -8.248              -0.764              
C              11.086              -7.361              -0.804              
O              11.636              -7.148              -1.915              
O              11.525              -6.911              0.291               
H              8.421               -6.299              -1.76               
H              9.805               -8.523              -2.86               
H              9.212               -7.871              -0.107              
H              10.132              -9.164              -0.49               
N              6.936               -9.254              -1.667              
C              5.92                -10.296             -1.682              
C              5.492               -10.624             -3.102              
O              5.245               -11.798             -3.411              
C              4.722               -9.891              -0.838              
C              4.983               -9.931              0.662               
C              3.793               -9.531              1.519               
C              2.636               -10.503             1.468               
N              1.651               -10.147             2.54                
H              6.779               -8.298              -1.32               
H              6.3                 -11.129             -1.257              
H              4.463               -8.959              -1.083              
H              3.968               -10.514             -1.039              
H              5.265               -10.87              0.918               
H              5.757               -9.314              0.874               
H              4.101               -9.449              2.475               
H              3.467               -8.628              1.213               
H              2.189               -10.44              0.585               
H              2.969               -11.424             1.629               
H              1.422               -9.179              2.464               
H              0.828               -10.7               2.424               
H              2.059               -10.33              3.432               
N              5.421               -9.624              -3.992              
C              5.171               -9.936              -5.4                
C              6.273               -10.848             -5.925              
O              6.012               -11.916             -6.483              
C              5.053               -8.664              -6.265              
C              3.872               -7.777              -5.859              
C              4.909               -9.069              -7.739              
C              3.904               -6.394              -6.539              
H              5.55                -8.685              -3.618              
H              4.324               -10.466             -5.423              
H              5.895               -8.132              -6.144              
H              3.027               -8.23               -6.111              
H              3.9                 -7.639              -4.877              
H              4.898               -8.248              -8.304              
H              5.68                -9.645              -7.996              
H              4.057               -9.572              -7.858              
H              3.872               -6.524              -7.524              
H              3.114               -5.872              -6.234              
H              4.745               -5.932              -6.279              
N              7.532               -10.433             -5.754              
C              8.655               -11.199             -6.294              
C              8.691               -12.614             -5.722              
O              9.08                -13.564             -6.414              
C              9.97                -10.429             -6.047              
C              11.189              -11.276             -6.323              
C              9.99                -9.157              -6.877              
H              7.636               -9.554              -5.225              
H              8.533               -11.271             -7.292              
H              9.993               -10.181             -5.076              
H              11.937              -10.698             -6.654              
H              11.479              -11.738             -5.483              
H              10.974              -11.965             -7.019              
H              10.734              -9.208              -7.543              
H              9.117               -9.06               -7.356              
H              10.132              -8.371              -6.275              
N              8.338               -12.773             -4.448              
C              8.306               -14.09              -3.824              
C              7.07                -14.889             -4.213              
O              6.924               -16.04              -3.766              
C              8.375               -13.946             -2.299              
H              8.093               -11.896             -3.951              
H              9.128               -14.607             -4.116              
H              7.9                 -14.714             -1.875              
H              9.331               -13.942             -2.012              
H              7.939               -13.09              -2.03               
N              6.206               -14.326             -5.056              
C              4.956               -14.962             -5.478              
C              4.068               -15.314             -4.287              
O              3.457               -16.38              -4.229              
C              5.189               -16.169             -6.39               
C              4.01                -16.427             -7.305              
H              6.499               -13.377             -5.397              
H              4.452               -14.286             -6.032              
H              5.992               -15.991             -6.947              
H              5.332               -16.97              -5.819              
O              3.264               -15.496             -7.658              
N              3.819               -17.682             -7.681              
H              4.435               -18.403             -7.356              
H              3.06                -17.916             -8.29               
N              3.968               -14.394             -3.343              
C              3.158               -14.594             -2.152              
C              1.718               -14.111             -2.31               
O              0.865               -14.484             -1.492              
C              3.79                -13.889             -0.949              
C              5.065               -14.536             -0.378              
C              5.655               -13.678             0.739               
O              4.939               -13.41              1.739               
O              6.807               -13.22              0.596               
H              4.513               -13.523             -3.523              
H              3.152               -15.582             -1.906              
H              4.032               -12.97              -1.228              
H              3.121               -13.874             -0.219              
H              4.821               -15.395             0.005               
H              5.723               -14.588             -1.091              
N              1.412               -13.301             -3.327              
C              0.045               -12.855             -3.59               
C              -0.557              -13.78              -4.629              
O              0.012               -13.952             -5.715              
C              0.004               -11.428             -4.142              
C              0.448               -10.368             -3.174              
C              -0.232              -10.136             -1.992              
C              1.529               -9.546              -3.473              
C              0.166               -9.151              -1.121              
C              1.938               -8.575              -2.609              
C              1.266               -8.368              -1.443              
O              1.688               -7.394              -0.597              
H              2.227               -13.018             -3.911              
H              -0.48               -12.941             -2.748              
H              0.598               -11.39              -4.947              
H              -0.938              -11.229             -4.417              
H              -1.035              -10.7               -1.766              
H              2.01                -9.68               -4.344              
H              -0.325              -8.995              -0.264              
H              2.743               -8.005              -2.834              
H              1.295               -7.543              0.312               
N              -1.691              -14.405             -4.295              
H              -2.033              -14.202             -3.34               
H              -2.1559             -15.0212            -4.94239            
H              8.78783             -2.72239            -0.224423           
