192
2.xyz
C              4.037               16.068              77.093              
O              3.705               14.893              77.279              
N              4.767               16.76               77.972              
C              5.196               16.218              79.259              
C              4.404               16.939              80.339              
O              4.756               18.067              80.722              
C              6.701               16.428              79.459              
C              7.231               15.755              80.72               
O              6.482               15.611              81.712              
O              8.425               15.38               80.727              
H              5.006               17.73               77.656              
H              4.924               15.263              79.283              
H              7.172               16.045              78.673              
H              6.87                17.404              79.525              
N              3.335               16.336              80.861              
C              2.414               17.093              81.728              
C              3.044               17.595              83.01               
O              2.75                18.721              83.435              
C              1.277               16.093              81.985              
C              1.332               15.168              80.792              
C              2.789               15.017              80.489              
H              1.996               17.863              81.203              
H              1.434               15.587              82.831              
H              0.397               16.56               82.029              
H              0.913               14.287              81.022              
H              0.838               15.575              80.02               
H              3.209               14.299              81.04               
H              2.949               14.834              79.52               
N              3.901               16.803              83.648              
C              4.533               17.282              84.87               
C              5.516               18.403              84.562              
O              5.522               19.434              85.246              
C              5.214               16.123              85.595              
C              5.581               16.429              87.032              
C              5.381               15.237              87.945              
H              4.064               15.887              83.229              
H              3.815               17.658              85.466              
H              4.596               15.334              85.59               
H              6.054               15.884              85.101              
H              6.542               16.7                87.069              
H              5.008               17.18               87.359              
O              4.477               14.426              87.736              
N              6.226               15.121              88.963              
H              6.145               14.354              89.626              
H              6.963               15.817              89.071              
N              6.324               18.232              83.513              
C              7.289               19.253              83.111              
C              6.597               20.579              82.827              
O              7.026               21.635              83.307              
C              8.036               18.768              81.867              
C              9.288               19.433              81.289              
C              9.036               20.832              80.733              
C              10.386              19.449              82.322              
H              6.208               17.327              83.019              
H              7.943               19.389              83.865              
H              8.285               17.777              82.034              
H              7.346               18.73               81.098              
H              9.656               18.846              80.551              
H              8.694               21.423              81.463              
H              9.891               21.205              80.374              
H              8.359               20.781              79.999              
H              10.611              18.511              82.596              
H              11.206              19.885              81.942              
H              10.087              19.962              83.13               
N              5.527               20.543              82.04               
C              4.835               21.745              81.598              
C              3.855               22.289              82.624              
O              3.258               23.345              82.381              
C              4.098               21.466              80.292              
C              5.001               21.144              79.107              
C              4.184               20.605              77.951              
C              5.79                22.383              78.695              
H              5.226               19.579              81.767              
H              5.53                22.464              81.408              
H              3.505               20.685              80.436              
H              3.573               22.272              80.058              
H              5.675               20.46               79.388              
H              3.508               21.288              77.667              
H              4.787               20.397              77.179              
H              3.71                19.769              78.233              
H              6.353               22.689              79.463              
H              6.378               22.16               77.918              
H              5.155               23.111              78.435              
N              3.668               21.607              83.747              
C              2.731               22.078              84.752              
C              1.282               21.988              84.327              
O              0.494               22.894              84.632              
H              4.228               20.744              83.838              
H              2.863               21.541              85.61               
H              2.952               23.047              84.987              
N              0.914               20.925              83.616              
C              -0.469              20.686              83.203              
C              -0.85               19.26               83.589              
O              -1.033              18.404              82.71               
C              -0.667              20.972              81.706              
C              0.428               20.308              80.858              
C              -0.689              22.482              81.46               
C              0.217               20.416              79.369              
H              1.697               20.275              83.377              
H              -1.035              21.292              83.755              
H              -1.544              20.584              81.43               
H              1.305               20.729              81.097              
H              0.468               19.339              81.111              
H              -0.873              22.656              80.495              
H              -1.405              22.896              82.018              
H              0.196               22.869              81.708              
H              0.189               21.38               79.105              
H              0.969               19.961              78.891              
H              -0.647              19.978              79.122              
N              -1.006              18.965              84.882              
C              -1.15               17.565              85.306              
C              -2.421              16.888              84.834              
O              -2.492              15.654              84.897              
C              -1.102              17.652              86.837              
C              -1.564              19.04               87.135              
C              -0.996              19.885              86.034              
H              -0.327              17.027              85.02               
H              -1.713              16.973              87.247              
H              -0.171              17.503              87.169              
H              -2.568              19.083              87.141              
H              -1.223              19.339              88.031              
H              -1.567              20.682              85.849              
H              -0.063              20.179              86.239              
N              -3.42               17.629              84.366              
C              -4.649              17.009              83.884              
C              -4.579              16.569              82.424              
O              -5.566              16.032              81.915              
C              -5.856              17.936              84.099              
C              -5.809              19.18               83.228              
O              -4.722              19.529              82.719              
O              -6.867              19.83               83.064              
H              -3.254              18.648              84.374              
H              -4.798              16.17               84.438              
H              -6.677              17.422              83.879              
H              -5.862              18.212              85.052              
N              -3.436              16.754              81.756              
C              -3.364              16.561              80.306              
C              -3.826              15.161              79.882              
O              -4.657              15.022              78.972              
C              -1.946              16.843              79.803              
C              -1.853              16.752              78.307              
C              -2.281              17.798              77.504              
C              -1.371              15.61               77.686              
C              -2.222              17.72               76.12               
C              -1.308              15.519              76.305              
C              -1.74               16.571              75.524              
O              -1.68               16.469              74.149              
H              -2.631              17.037              82.338              
H              -3.975              17.236              79.867              
H              -1.695              17.759              80.082              
H              -1.338              16.17               80.199              
H              -2.643              18.633              77.93               
H              -1.063              14.839              78.243              
H              -2.526              18.492              75.559              
H              -0.948              14.687              75.874              
H              -2.137              17.258              73.744              
N              -3.299              14.111              80.524              
C              -3.661              12.76               80.112              
C              -5.078              12.378              80.533              
O              -5.598              11.371              80.035              
C              -2.681              11.755              80.71               
C              -1.284              11.81               80.135              
C              -1.05               12.148              78.812              
C              -0.199              11.484              80.938              
C              0.252               12.171              78.31               
C              1.095               11.507              80.441              
C              1.323               11.846              79.136              
H              -2.656              14.335              81.286              
H              -3.646              12.746              79.1                
H              -2.613              11.935              81.684              
H              -3.038              10.844              80.546              
H              -1.806              12.378              78.211              
H              -0.355              11.228              81.896              
H              0.407               12.423              77.349              
H              1.867               11.267              81.059              
H              2.252               11.865              78.763              
N              -5.7                13.129              81.455              
C              -7.113              12.906              81.763              
C              -7.991              13.376              80.612              
O              -9.084              12.836              80.399              
C              -7.54               13.67               83.028              
C              -6.772              13.258              84.281              
O              -6.193              12.153              84.32               
O              -6.774              14.049              85.257              
H              -5.116              13.844              81.905              
H              -7.244              11.913              81.85               
H              -7.386              14.64               82.866              
H              -8.508              13.497              83.178              
N              -7.523              14.372              79.866              
H              -6.548              14.669              80.113              
H              3.76548             16.5706             76.1989             
H              -8.05659            14.8071             79.1249             
