168
1.xyz
C              11.869              6.683               -2.093              
O              12.368              7.156               -1.066              
N              12.609              6.067               -3.021              
C              14.045              5.911               -2.795              
C              14.775              7.247               -2.8                
O              15.795              7.387               -2.115              
C              14.656              4.982               -3.844              
C              14.189              3.562               -3.699              
C              15.201              2.567               -4.211              
H              12.11               5.738               -3.846              
H              14.171              5.493               -1.883              
H              14.398              5.313               -4.749              
H              15.65               5.004               -3.747              
H              14.018              3.371               -2.731              
H              13.338              3.443               -4.213              
O              14.927              1.825               -5.151              
N              16.373              2.526               -3.574              
H              17.097              1.872               -3.854              
H              16.529              3.167               -2.798              
N              14.295              8.218               -3.578              
C              14.874              9.559               -3.564              
C              14.769              10.204              -2.189              
O              15.607              11.039              -1.831              
C              14.177              10.451              -4.59               
C              14.4                10.08               -6.044              
C              13.476              10.848              -6.978              
O              12.798              11.789              -6.508              
O              13.419              10.505              -8.178              
H              13.497              7.944               -4.177              
H              15.845              9.51                -3.839              
H              13.202              10.403              -4.415              
H              14.513              11.375              -4.462              
H              15.321              10.311              -6.286              
H              14.205              9.126               -6.157              
N              13.742              9.854               -1.419              
C              13.617              10.393              -0.067              
C              14.636              9.786               0.886               
O              14.921              10.38               1.934               
C              12.208              10.155              0.476               
C              11.081              10.715              -0.397              
C              11.249              12.209              -0.61               
C              10.033              12.835              -1.289              
N              10.28               14.281              -1.572              
H              13.073              9.198               -1.842              
H              13.762              11.394              -0.102              
H              12.068              9.169               0.566               
H              12.142              10.583              1.378               
H              11.101              10.254              -1.281              
H              10.209              10.545              0.055               
H              11.376              12.651              0.275               
H              12.047              12.368              -1.187              
H              9.86                12.357              -2.146              
H              9.245               12.748              -0.685              
H              10.22               14.438              -2.556              
H              9.592               14.83               -1.101              
H              11.191              14.529              -1.246              
N              15.177              8.615               0.552               
C              16.175              7.934               1.383               
C              17.552              8.359               0.886               
O              18.248              7.632               0.175               
C              15.967              6.425               1.316               
C              17.064              5.621               2.015               
O              17.75               6.144               2.928               
O              17.236              4.444               1.62                
H              14.83               8.223               -0.352              
H              16.075              8.283               2.308               
H              15.096              6.21                1.751               
H              15.943              6.155               0.357               
N              17.928              9.59                1.24                
C              19.131              10.178              0.661               
C              20.398              9.49                1.149               
O              21.416              9.531               0.452               
C              19.203              11.678              0.962               
O              19.244              11.881              2.378               
C              17.987              12.398              0.395               
H              17.323              10.059              1.922               
H              19.083              10.078              -0.345              
H              20.063              12.056              0.562               
H              17.153              11.893              0.63                
H              17.93               13.322              0.779               
H              18.064              12.46               -0.602              
H              18.317              11.834              2.766               
N              20.362              8.853               2.317               
C              21.536              8.12                2.746               
C              21.599              6.699               2.238               
O              22.549              5.976               2.557               
H              19.491              8.926               2.841               
H              22.374              8.622               2.442               
H              21.571              8.112               3.769               
N              20.591              6.279               1.461               
C              20.487              4.921               0.92                
C              20.521              3.857               2.01                
O              20.955              2.729               1.773               
C              21.574              4.646               -0.127              
C              21.372              5.455               -1.398              
H              19.87               7.02                1.27                
H              19.586              4.853               0.466               
H              22.455              4.886               0.265               
H              21.549              3.679               -0.358              
O              20.293              6.006               -1.631              
N              22.406              5.531               -2.225              
H              23.262              5.061               -1.996              
H              22.336              6.053               -3.074              
N              20.065              4.192               3.221               
C              20.129              3.217               4.309               
C              19.021              2.178               4.228               
O              19.109              1.142               4.899               
C              20.113              3.911               5.686               
C              18.808              4.685               5.883               
C              21.319              4.836               5.842               
C              18.631              5.172               7.306               
H              19.69               5.138               3.31                
H              21.001              2.721               4.19                
H              20.162              3.205               6.385               
H              18.808              5.466               5.27                
H              18.05               4.084               5.654               
H              21.314              5.234               6.757               
H              22.157              4.312               5.71                
H              21.268              5.563               5.161               
H              19.388              5.778               7.545               
H              17.768              5.669               7.38                
H              18.621              4.388               7.925               
N              18.008              2.389               3.382               
C              16.958              1.4                 3.176               
C              17.045              0.75                1.803               
O              16.098              0.078               1.381               
C              15.582              2.041               3.374               
C              15.419              2.694               4.72                
C              15.351              1.928               5.861               
C              15.344              4.075               4.831               
C              15.22               2.522               7.111               
C              15.197              4.68                6.076               
C              15.148              3.907               7.209               
H              18.038              3.306               2.894               
H              17.107              0.667               3.856               
H              15.469              2.734               2.682               
H              14.903              1.33                3.295               
H              15.397              0.932               5.802               
H              15.397              4.643               4.01                
H              15.177              1.949               7.934               
H              15.126              5.69                6.13                
H              15.061              4.331               8.114               
N              18.17               0.925               1.107               
C              18.277              0.468               -0.272              
C              18.409              -1.045              -0.361              
O              17.94               -1.646              -1.33               
C              19.468              1.147               -0.955              
O              20.678              0.856               -0.275              
H              18.932              1.398               1.619               
H              17.431              0.734               -0.756              
H              19.533              0.814               -1.89               
H              19.321              2.131               -0.949              
H              20.794              1.494               0.485               
N              19.033              -1.673              0.623               
C              19.373              -3.083              0.587               
C              20.88               -3.273              0.343               
C              21.351              -2.766              -1.007              
C              22.852              -2.553              -1.062              
O              23.333              -1.526              -0.535              
O              23.552              -3.421              -1.624              
H              19.264              -1.054              1.444               
H              18.889              -3.533              -0.162              
H              21.357              -2.768              1.038               
H              21.067              -4.236              0.386               
H              21.122              -3.437              -1.687              
H              20.923              -1.898              -1.181              
H              10.8255             6.77583             -2.27936            
H              19.08               -3.53901            1.53707             
