347
0.xyz
N              33.62               22.631              46.988              
C              33.211              22.604              45.589              
C              31.771              22.114              45.472              
O              31.329              21.277              46.261              
C              34.146              21.701              44.78               
C              34.017              21.851              43.272              
S              35.001              20.647              42.353              
C              36.646              20.999              42.962              
H              32.83               22.828              47.573              
H              33.249              23.541              45.231              
H              35.101              21.904              45.04               
H              33.958              20.738              45.021              
H              33.024              21.773              43.022              
H              34.286              22.809              43.016              
H              37.325              20.694              42.293              
H              36.747              21.984              43.11               
H              36.795              20.518              43.828              
H              34.005              21.744              47.25               
H              34.314              23.34               47.129              
N              31.044              22.644              44.49               
C              29.678              22.202              44.273              
C              29.608              20.723              43.948              
O              30.556              20.129              43.433              
H              31.519              23.362              43.927              
H              29.128              22.388              45.102              
H              29.27               22.731              43.513              
N              28.456              20.123              44.257              
C              28.311              18.675              44.129              
C              28.521              18.215              42.691              
O              29.261              17.258              42.435              
C              26.939              18.239              44.644              
H              27.707              20.751              44.582              
H              29.002              18.228              44.714              
H              26.535              17.591              44                  
H              27.044              17.803              45.536              
H              26.348              19.039              44.729              
N              27.87               18.882              41.736              
C              28.017              18.494              40.337              
C              29.441              18.722              39.844              
O              29.981              17.906              39.087              
C              27.014              19.256              39.472              
H              27.282              19.659              42.062              
H              27.8                17.513              40.248              
H              27.432              20.104              39.15               
H              26.756              18.692              38.689              
H              26.202              19.467              40.014              
N              30.068              19.824              40.266              
C              31.446              20.084              39.865              
C              32.396              19.05               40.456              
O              33.366              18.644              39.802              
C              31.859              21.501              40.27               
C              31.181              22.611              39.472              
C              29.735              22.839              39.879              
O              29.359              22.448              41.005              
O              28.972              23.41               39.072              
H              29.514              20.442              40.871              
H              31.515              20.067              38.859              
H              31.615              21.626              41.217              
H              32.83               21.584              40.127              
H              31.671              23.448              39.634              
H              31.186              22.355              38.523              
N              32.136              18.613              41.691              
C              32.963              17.575              42.297              
C              32.813              16.251              41.559              
O              33.808              15.562              41.304              
C              32.612              17.417              43.777              
C              33.334              16.298              44.529              
C              34.833              16.534              44.52               
C              32.813              16.178              45.954              
H              31.333              19.057              42.155              
H              33.927              17.861              42.244              
H              32.833              18.274              44.237              
H              31.635              17.237              43.842              
H              33.131              15.426              44.085              
H              35.039              17.408              44.963              
H              35.293              15.795              45.015              
H              35.165              16.556              43.576              
H              31.834              15.973              45.936              
H              33.298              15.441              46.427              
H              32.964              17.04               46.439              
N              31.578              15.883              41.199              
C              31.366              14.652              40.443              
C              32.122              14.68               39.123              
O              32.701              13.668              38.709              
C              29.875              14.43               40.184              
C              29.069              14.011              41.399              
C              27.733              13.401              40.99               
N              26.962              14.283              40.118              
C              26.116              15.211              40.553              
N              25.93               15.384              41.855              
N              25.458              15.97               39.686              
H              30.826              16.52               41.492              
H              31.7                13.874              40.99               
H              29.49               15.284              39.835              
H              29.783              13.716              39.49               
H              29.574              13.328              41.917              
H              28.883              14.806              41.968              
H              27.919              12.545              40.513              
H              27.211              13.219              41.821              
H              27.079              14.181              39.123              
H              26.43               14.842              42.525              
H              25.271              16.078              42.174              
H              25.619              15.851              38.703              
H              24.809              16.655              40.007              
N              32.129              15.831              38.449              
C              32.793              15.914              37.153              
C              34.308              15.837              37.301              
O              34.984              15.214              36.475              
C              32.373              17.188              36.422              
C              32.718              17.188              34.961              
C              31.852              16.631              34.035              
C              33.911              17.734              34.514              
C              32.164              16.622              32.691              
C              34.23               17.729              33.168              
C              33.355              17.172              32.255              
H              31.647              16.614              38.905              
H              32.511              15.103              36.626              
H              31.392              17.276              36.505              
H              32.84               17.949              36.847              
H              30.99               16.231              34.341              
H              34.548              18.137              35.173              
H              31.52               16.212              32.031              
H              35.107              18.134              32.858              
H              33.579              17.165              31.279              
N              34.859              16.464              38.345              
C              36.29               16.331              38.607              
C              36.664              14.883              38.888              
O              37.704              14.401              38.423              
C              36.705              17.218              39.782              
S              36.717              18.985              39.44               
H              34.215              17.02               38.917              
H              36.789              16.631              37.785              
H              36.069              17.044              40.538              
H              37.628              16.942              40.063              
H              37.661              19.32               39.432              
N              35.831              14.174              39.654              
C              36.104              12.769              39.938              
C              36.045              11.926              38.673              
O              36.896              11.056              38.46               
C              35.135              12.237              40.994              
C              35.622              12.484              42.407              
H              35.014              14.688              40.01               
H              37.048              12.714              40.286              
H              34.258              12.694              40.875              
H              35.031              11.255              40.859              
O              36.543              11.818              42.881              
N              35.006              13.441              43.09               
H              34.256              13.952              42.664              
H              35.287              13.653              44.024              
N              35.043              12.164              37.823              
C              34.964              11.432              36.563              
C              36.175              11.723              35.69               
O              36.683              10.832              35.001              
C              33.668              11.789              35.833              
C              32.41               11.314              36.544              
C              31.149              11.959              36                  
H              34.367              12.875              38.124              
H              34.966              10.448              36.775              
H              33.616              12.784              35.739              
H              33.687              11.372              34.922              
H              32.334              10.323              36.433              
H              32.488              11.536              37.516              
O              31.199              12.762              35.068              
N              30.008              11.612              36.587              
H              29.124              12.014              36.286              
H              30.033              10.934              37.346              
N              36.667              12.963              35.729              
C              37.792              13.347              34.884              
C              39.083              12.666              35.326              
O              39.822              12.126              34.496              
C              37.946              14.869              34.874              
O              36.762              15.464              34.324              
C              39.15               15.278              34.034              
H              36.195              13.601              36.388              
H              37.593              13.062              33.936              
H              38.049              15.2                35.834              
H              39.759              14.492              33.909              
H              38.843              15.602              33.137              
H              39.651              16.013              34.495              
H              36.016              15.442              34.997              
N              39.377              12.683              36.63               
C              40.622              12.081              37.103              
C              40.595              10.563              36.926              
O              41.615              9.947               36.594              
C              40.95               12.523              38.546              
C              42.426              12.272              38.869              
C              40.056              11.831              39.566              
C              43.375              13.078              38.013              
H              38.685              13.134              37.235              
H              41.348              12.426              36.502              
H              40.782              13.501              38.611              
H              42.581              12.497              39.828              
H              42.614              11.301              38.731              
H              40.253              12.187              40.478              
H              39.099              12.004              39.342              
H              40.229              10.848              39.548              
H              43.2                14.052              38.149              
H              44.317              12.869              38.273              
H              43.235              12.845              37.051              
N              39.429              9.938               37.119              
C              39.322              8.501               36.885              
C              39.531              8.171               35.414              
O              40.179              7.173               35.08               
C              37.969              7.985               37.374              
C              37.821              7.985               38.884              
C              36.408              7.61                39.297              
C              36.232              7.701               40.804              
N              34.807              7.556               41.214              
H              38.655              10.534              37.432              
H              40.029              8.03                37.426              
H              37.256              8.566               36.988              
H              37.856              7.049               37.046              
H              38.459              7.322               39.276              
H              38.029              8.897               39.234              
H              35.769              8.237               38.865              
H              36.225              6.675               39.012              
H              36.775              6.976               41.24               
H              36.575              8.592               41.119              
H              34.713              6.758               41.808              
H              34.519              8.377               41.707              
H              34.239              7.437               40.4                
N              38.994              9.007               34.522              
C              39.213              8.811               33.093              
C              40.695              8.893               32.748              
O              41.207              8.071               31.98               
C              38.412              9.843               32.298              
C              38.776              9.932               30.82               
C              38.242              8.77                30.005              
O              37.435              7.98                30.541              
O              38.627              8.648               28.823              
H              38.433              9.773               34.921              
H              38.854              7.911               32.816              
H              37.459              9.592               32.354              
H              38.58               10.728              32.698              
H              38.383              10.757              30.457              
H              39.757              9.924               30.744              
N              41.406              9.869               33.322              
C              42.823              10.033              33.005              
C              43.672              8.876               33.521              
O              44.723              8.58                32.941              
C              43.347              11.358              33.563              
C              42.834              12.649              32.924              
C              43.505              13.858              33.561              
C              43.059              12.636              31.417              
H              40.887              10.466              33.977              
H              42.923              10.076              31.999              
H              43.109              11.394              34.537              
H              44.344              11.355              33.469              
H              41.846              12.708              33.059              
H              44.495              13.8                33.428              
H              43.161              14.695              33.134              
H              43.301              13.876              34.54               
H              42.571              11.861              31.013              
H              42.716              13.488              31.021              
H              44.037              12.549              31.226              
N              43.246              8.218               34.598              
C              44.013              7.143               35.215              
C              43.591              5.754               34.749              
O              44.236              4.767               35.123              
C              43.919              7.232               36.743              
C              44.454              8.537               37.315              
S              44.299              8.657               39.111              
C              45.517              7.463               39.661              
H              42.32               8.538               34.959              
H              44.99               7.271               34.966              
H              42.955              7.136               37.016              
H              44.44               6.47                37.146              
H              45.438              8.637               37.028              
H              43.964              9.318               36.856              
H              46.034              7.842               40.43               
H              45.056              6.624               39.952              
H              46.144              7.253               38.91               
N              42.544              5.651               33.935              
C              41.973              4.352               33.606              
C              42.892              3.554               32.685              
O              43.667              4.112               31.902              
C              40.605              4.527               32.949              
O              40.689              5.357               31.804              
H              42.183              6.548               33.568              
H              41.867              3.83                34.462              
H              40.262              3.632               32.676              
H              39.984              4.945               33.607              
H              40.878              6.297               32.086              
N              42.786              2.223               32.786              
C              43.577              1.322               31.952              
C              43.318              1.533               30.468              
O              44.159              1.16                29.642              
C              43.263              -0.134              32.306              
C              43.527              -0.516              33.753              
C              45.011              -0.655              34.035              
C              45.248              -1.294              35.394              
N              46.699              -1.432              35.704              
H              42.104              1.897               33.497              
H              44.559              1.488               32.137              
H              42.294              -0.3                32.109              
H              43.821              -0.724              31.718              
H              43.148              0.192               34.352              
H              43.076              -1.388              33.948              
H              45.42               -1.232              33.338              
H              45.428              0.246               34.032              
H              44.814              -0.727              36.101              
H              44.822              -2.204              35.405              
H              46.956              -2.397              35.663              
H              47.231              -0.914              35.035              
H              46.876              -1.076              36.621              
N              42.166              2.109               30.115              
C              41.871              2.437               28.725              
C              42.944              3.332               28.113              
O              43.154              3.311               26.893              
C              40.487              3.09                28.659              
C              40.142              3.797               27.363              
C              38.742              4.396               27.433              
C              38.471              5.003               28.805              
N              37.297              5.917               28.801              
H              41.516              2.297               30.901              
H              41.823              1.58                28.19               
H              39.798              2.372               28.82               
H              40.425              3.759               29.411              
H              40.797              4.532               27.204              
H              40.174              3.143               26.611              
H              38.664              5.112               26.75               
H              38.076              3.679               27.268              
H              38.308              4.258               29.461              
H              39.286              5.514               29.099              
H              36.456              5.377               28.771              
H              37.307              6.474               29.631              
H              37.342              6.511               27.998              
N              43.649              4.107               28.941              
C              44.724              4.98                28.485              
C              46.087              4.563               29.031              
O              46.988              5.404               29.127              
C              44.435              6.435               28.861              
C              43.122              6.942               28.352              
H              43.361              4.032               29.944              
H              44.764              4.936               27.474              
H              44.44               6.521               29.864              
H              45.165              7.019               28.489              
N              42.824              7.018               27.008              
C              42.03               7.404               29.006              
C              41.603              7.501               26.857              
N              41.1                7.744               28.054              
H              41.92               7.484               29.993              
H              41.141              7.657               25.989              
H              40.188              8.115               28.238              
N              46.259              3.281               29.378              
H              45.473              2.656               29.146              
H              47.1118             2.97569             29.8353             
