367
1.xyz
C              11.735              -9.365              -4.956              
O              11.755              -9.213              -3.732              
N              12.838              -9.703              -5.664              
C              14.127              -9.866              -4.979              
C              14.61               -8.613              -4.254              
O              14.303              -7.49               -4.666              
C              15.094              -10.216             -6.115              
C              14.239              -10.817             -7.165              
C              12.932              -10.093             -7.084              
H              14.087              -10.657             -4.336              
H              15.556              -9.388              -6.45               
H              15.791              -10.865             -5.795              
H              14.658              -10.702             -8.075              
H              14.114              -11.804             -7                  
H              12.922              -9.28               -7.669              
H              12.163              -10.686             -7.334              
N              15.374              -8.83               -3.188              
C              15.939              -7.747              -2.388              
C              16.764              -6.781              -3.24               
O              16.605              -5.566              -3.12               
C              16.804              -8.315              -1.243              
O              15.996              -9.164              -0.418              
C              17.397              -7.199              -0.384              
H              15.535              -9.84               -2.972              
H              15.18               -7.228              -1.97               
H              17.551              -8.878              -1.646              
H              16.659              -6.642              0                   
H              17.934              -7.597              0.362               
H              17.99               -6.62               -0.946              
H              15.173              -8.674              -0.112              
N              17.626              -7.325              -4.102              
C              18.498              -6.513              -4.96               
C              17.731              -5.453              -5.757              
O              18.09               -4.273              -5.729              
C              19.301              -7.405              -5.914              
O              18.446              -8.14               -6.771              
H              17.627              -8.366              -4.114              
H              19.159              -6.031              -4.363              
H              19.897              -6.828              -6.465              
H              19.845              -8.041              -5.374              
H              17.728              -7.539              -7.122              
N              16.673              -5.88               -6.446              
C              15.84               -4.972              -7.248              
C              15.179              -3.885              -6.4                
O              15.124              -2.722              -6.807              
C              14.761              -5.754              -8                  
O              15.343              -6.749              -8.82               
H              16.487              -6.9                -6.37               
H              16.44               -4.517              -7.922              
H              14.16               -6.188              -7.337              
H              14.247              -5.122              -8.571              
H              14.675              -7.472              -8.994              
N              14.681              -4.275              -5.229              
C              14.059              -3.331              -4.295              
C              15.051              -2.301              -3.757              
O              14.711              -1.125              -3.624              
C              13.383              -4.083              -3.147              
C              12.168              -4.873              -3.611              
C              11.43               -5.544              -2.465              
C              12.221              -6.681              -1.84               
N              11.307              -7.692              -1.241              
H              14.769              -5.292              -5.035              
H              13.315              -2.842              -4.777              
H              14.039              -4.716              -2.759              
H              13.088              -3.42               -2.472              
H              11.535              -4.249              -4.083              
H              12.467              -5.579              -4.262              
H              11.244              -4.861              -1.758              
H              10.565              -5.911              -2.808              
H              12.777              -7.117              -2.546              
H              12.815              -6.311              -1.127              
H              10.529              -7.227              -0.82               
H              10.981              -8.309              -1.957              
H              11.801              -8.215              -0.547              
N              16.27               -2.744              -3.458              
C              17.326              -1.851              -2.97               
C              17.706              -0.821              -4.042              
O              17.825              0.369               -3.74               
C              18.556              -2.654              -2.478              
C              19.757              -1.754              -2.209              
C              18.207              -3.422              -1.21               
H              16.409              -3.765              -3.598              
H              16.97               -1.351              -2.175              
H              18.818              -3.281              -3.212              
H              20.565              -2.318              -2.045              
H              19.916              -1.166              -3.001              
H              19.576              -1.189              -1.405              
H              17.326              -3.102              -0.863              
H              18.153              -4.398              -1.42               
H              18.916              -3.264              -0.524              
N              17.886              -1.275              -5.285              
C              18.173              -0.368              -6.404              
C              17.05               0.638               -6.618              
O              17.306              1.826               -6.822              
C              18.392              -1.141              -7.706              
C              19.695              -1.867              -7.764              
H              17.807              -2.303              -5.39               
H              19.018              0.139               -6.188              
H              17.649              -1.812              -7.816              
H              18.353              -0.495              -8.478              
N              20.907              -1.227              -7.637              
C              19.976              -3.177              -7.955              
C              21.881              -2.113              -7.735              
N              21.343              -3.304              -7.926              
H              21.028              -0.245              -7.492              
H              19.318              -3.911              -8.092              
H              22.856              -1.918              -7.676              
N              15.813              0.146               -6.591              
C              14.637              1.004               -6.708              
C              14.608              2.071               -5.615              
O              14.376              3.242               -5.904              
C              13.354              0.167               -6.67               
C              12.101              0.984               -6.535              
C              11.532              1.598               -7.646              
C              11.487              1.144               -5.297              
C              10.375              2.353               -7.528              
C              10.332              1.9                 -5.172              
C              9.772               2.503               -6.288              
H              15.759              -0.887              -6.481              
H              14.715              1.492               -7.587              
H              13.3                -0.34               -7.516              
H              13.412              -0.438              -5.89               
H              11.959              1.494               -8.541              
H              11.884              0.707               -4.49               
H              9.979               2.79                -8.344              
H              9.901               2.01                -4.261              
H              8.936               3.044               -6.203              
N              14.849              1.669               -4.369              
C              14.82               2.618               -3.252              
C              15.939              3.66                -3.334              
O              15.703              4.827               -3.006              
C              14.828              1.893               -1.899              
C              13.535              1.148               -1.533              
C              13.746              0.352               -0.254              
C              12.346              2.087               -1.381              
H              15.052              0.663               -4.261              
H              13.933              3.105               -3.269              
H              15.56               1.222               -1.917              
H              14.99               2.569               -1.191              
H              13.299              0.529               -2.276              
H              13.992              0.974               0.49                
H              12.903              -0.132              -0.018              
H              14.483              -0.311              -0.39               
H              12.19               2.57                -2.243              
H              11.531              1.558               -1.143              
H              12.535              2.751               -0.657              
N              17.133              3.27                -3.793              
C              18.186              4.262               -4.058              
C              17.749              5.255               -5.139              
O              18.009              6.453               -5.012              
C              19.529              3.625               -4.446              
C              20.574              4.673               -4.848              
C              21.988              4.137               -4.97               
C              23.01               5.271               -4.927              
N              24.389              4.714               -5.048              
H              17.245              2.261               -3.938              
H              18.371              4.77                -3.21               
H              19.875              3.126               -3.666              
H              19.378              3.025               -5.218              
H              20.298              5.074               -5.736              
H              20.563              5.416               -4.161              
H              22.169              3.523               -4.212              
H              22.083              3.662               -5.836              
H              22.837              5.89                -5.685              
H              22.924              5.751               -4.061              
H              24.359              3.726               -4.906              
H              24.745              4.911               -5.961              
H              24.977              5.136               -4.359              
N              17.071              4.769               -6.18               
C              16.584              5.649               -7.254              
C              15.542              6.673               -6.777              
O              15.384              7.723               -7.402              
C              16.024              4.839               -8.433              
O              14.694              4.413               -8.198              
H              16.92               3.747               -6.169              
H              17.378              6.165               -7.616              
H              16.043              5.412               -9.25               
H              16.603              4.037               -8.571              
H              14.639              3.967               -7.305              
N              14.839              6.367               -5.683              
C              13.934              7.328               -5.042              
C              14.631              8.276               -4.054              
O              13.961              9.075               -3.396              
C              12.78               6.599               -4.334              
C              12.005              5.597               -5.185              
C              11.392              6.188               -6.451              
C              10.108              6.943               -6.175              
N              9.481               7.386               -7.454              
H              14.987              5.401               -5.329              
H              13.492              7.89                -5.766              
H              13.162              6.11                -3.544              
H              12.134              7.293               -4.001              
H              12.628              4.845               -5.45               
H              11.264              5.198               -4.624              
H              12.052              6.816               -6.861              
H              11.196              5.444               -7.088              
H              9.473               6.345               -5.69               
H              10.311              7.744               -5.616              
H              8.678               6.821               -7.641              
H              9.207               8.343               -7.373              
H              10.142              7.288               -8.197              
N              15.957              8.187               -3.942              
C              16.738              9.122               -3.143              
C              17.113              8.649               -1.753              
O              17.639              9.441               -0.968              
H              16.381              7.395               -4.473              
H              17.596              9.361               -3.658              
H              16.219              10.007              -3.066              
N              16.86               7.378               -1.432              
C              17.241              6.852               -0.123              
C              18.726              6.515               -0.085              
O              19.27               5.941               -1.033              
C              16.43               5.615               0.275               
C              15.048              5.867               0.883               
C              14.042              6.249               -0.19               
C              14.583              4.641               1.659               
H              16.391              6.824               -2.162              
H              17.056              7.557               0.571               
H              16.297              5.061               -0.545              
H              16.962              5.105               0.946               
H              15.119              6.609               1.552               
H              13.967              5.508               -0.858              
H              13.148              6.409               0.23                
H              14.345              7.083               -0.652              
H              15.233              4.445               2.394               
H              13.68               4.817               2.051               
H              14.531              3.855               1.042               
N              19.368              6.878               1.022               
C              20.716              6.419               1.33                
C              20.678              4.945               1.722               
O              19.617              4.409               2.052               
C              21.306              7.237               2.48                
O              20.617              6.985               3.695               
H              18.825              7.516               1.646               
H              21.273              6.503               0.502               
H              22.263              6.988               2.593               
H              21.227              8.205               2.259               
H              19.772              7.518               3.714               
N              21.84               4.299               1.7                 
C              21.953              2.904               2.138               
C              21.451              2.715               3.571               
O              20.773              1.728               3.866               
C              23.389              2.416               2.014               
H              22.644              4.854               1.354               
H              21.396              2.328               1.525               
H              23.48               1.528               2.464               
H              23.629              2.325               1.048               
H              24.004              3.073               2.448               
N              21.769              3.668               4.449               
C              21.302              3.627               5.84                
C              19.778              3.76                5.96                
O              19.161              3.066               6.769               
C              22.005              4.695               6.686               
C              23.484              4.404               6.904               
C              24.166              5.38                7.848               
O              23.521              5.856               8.808               
O              25.365              5.664               7.636               
H              22.365              4.428               4.071               
H              21.594              2.756               6.267               
H              21.936              5.547               6.208               
H              21.572              4.714               7.564               
H              23.566              3.504               7.298               
H              23.943              4.465               6.033               
N              19.18               4.64                5.155               
C              17.719              4.792               5.113               
C              17.022              3.543               4.57                
O              15.962              3.156               5.067               
C              17.324              6.012               4.276               
C              17.668              7.34                4.941               
C              17.698              8.517               3.981               
O              17.176              8.404               2.853               
O              18.239              9.577               4.362               
H              19.826              5.202               4.568               
H              17.376              4.989               6.043               
H              17.818              5.967               3.43                
H              16.352              5.987               4.148               
H              16.98               7.529               5.622               
H              18.566              7.261               5.342               
N              17.615              2.935               3.543               
C              17.122              1.669               2.985               
C              17.144              0.589               4.064               
O              16.161              -0.13               4.257               
C              17.956              1.232               1.752               
C              17.697              2.194               0.585               
C              17.631              -0.205              1.336               
C              18.676              2.081               -0.563              
H              18.453              3.43                3.171               
H              16.163              1.823               2.752               
H              18.913              1.294               1.997               
H              16.77               2.026               0.24                
H              17.728              3.131               0.943               
H              18.208              -0.463              0.565               
H              17.804              -0.817              2.104               
H              16.671              -0.262              1.071               
H              18.64               1.156               -0.939              
H              18.432              2.74                -1.273              
H              19.599              2.272               -0.232              
N              18.269              0.499               4.769               
C              18.431              -0.444              5.877               
C              17.367              -0.248              6.95                
O              16.772              -1.219              7.427               
C              19.83               -0.306              6.484               
S              20.364              -1.747              7.43                
H              19.023              1.154               4.467               
H              18.337              -1.379              5.509               
H              20.476              -0.16               5.74                
H              19.826              0.486               7.091               
H              20.332              -2.56               6.848               
N              17.125              1.008               7.313               
C              16.105              1.342               8.302               
C              14.722              0.868               7.854               
O              13.99               0.274               8.642               
C              16.102              2.851               8.577               
C              15.005              3.326               9.52                
C              15.146              4.786               9.913               
O              16.289              5.282               10.032              
O              14.107              5.448               10.112              
H              17.716              1.72                6.839               
H              16.334              0.913               9.185               
H              16.969              3.081               8.988               
H              15.974              3.312               7.714               
H              14.14               3.224               9.062               
H              15.053              2.791               10.345              
N              14.382              1.112               6.588               
C              13.075              0.716               6.051               
C              12.851              -0.796              6.113               
O              11.772              -1.243              6.504               
C              12.907              1.216               4.622               
H              15.106              1.596               6.026               
H              12.353              1.17                6.596               
H              12.042              0.88                4.25                
H              12.905              2.215               4.616               
H              13.663              0.881               4.06                
N              13.864              -1.572              5.726               
C              13.788              -3.039              5.796               
C              13.577              -3.543              7.227               
O              12.79               -4.463              7.446               
C              15.031              -3.701              5.181               
C              14.939              -3.902              3.692               
C              14.2                -4.98               3.174               
C              15.58               -3.025              2.829               
C              14.056              -5.252              1.806               
C              14.64               -4.47               0.827               
C              15.429              -3.301              1.374               
H              14.697              -1.062              5.377               
H              12.973              -3.313              5.268               
H              15.805              -3.115              5.364               
H              15.139              -4.587              5.604               
H              13.739              -5.603              3.83                
H              16.099              -2.274              3.104               
H              13.495              -6.065              1.537               
H              15.871              -2.684              0.721               
H              14.589              -4.599              -0.099              
N              14.271              -2.937              8.191               
C              14.099              -3.297              9.605               
C              15.207              -2.678              10.488              
O              16.447              -3.337              10.209              
C              14.898              -2.835              11.986              
H              14.928              -2.206              7.865               
H              14.206              -4.295              9.693               
H              15.305              -1.695              10.246              
H              15.181              -2.008              12.472              
H              13.916              -2.976              12.109              
H              15.397              -3.623              12.347              
H              16.372              -3.884              9.368               
H              10.8151             -9.23517            -5.48647            
H              13.0994             -3.02411            9.97483             
