219
3.xyz
C              6.72                -7.768              -0.673              
C              5.896               -7.104              -1.771              
O              5.016               -7.738              -2.372              
C              6.134               -7.465              0.716               
C              6.831               -8.237              1.837               
H              6.706               -8.758              -0.853              
H              6.236               -6.491              0.895               
H              5.171               -7.717              0.712               
O              7.486               -9.249              1.595               
N              6.679               -7.764              3.072               
H              6.122               -6.943              3.221               
H              7.114               -8.222              3.842               
N              6.176               -5.829              -2.059              
C              5.442               -5.114              -3.099              
C              5.635               -5.773              -4.461              
O              4.666               -6.024              -5.186              
C              5.898               -3.65               -3.142              
C              5.186               -2.609              -4.021              
C              5.558               -1.206              -3.547              
C              5.509               -2.749              -5.51               
H              6.934               -5.41               -1.497              
H              4.461               -5.136              -2.872              
H              5.867               -3.295              -2.186              
H              6.878               -3.646              -3.42               
H              4.204               -2.737              -3.941              
H              6.547               -1.083              -3.618              
H              5.095               -0.529              -4.118              
H              5.274               -1.091              -2.596              
H              5.227               -3.654              -5.826              
H              5.017               -2.046              -6.022              
H              6.493               -2.637              -5.647              
N              6.888               -6.033              -4.839              
C              7.158               -6.591              -6.158              
C              6.721               -8.044              -6.26               
O              6.566               -8.556              -7.378              
C              8.646               -6.462              -6.491              
C              9.129               -5.023              -6.575              
C              10.595              -4.897              -6.985              
O              10.932              -3.922              -7.685              
O              11.409              -5.769              -6.614              
H              7.613               -5.813              -4.144              
H              6.677               -6.045              -6.861              
H              9.152               -6.905              -5.775              
H              8.794               -6.878              -7.368              
H              8.594               -4.554              -7.255              
H              9.038               -4.61               -5.686              
N              6.525               -8.716              -5.125              
C              6.011               -10.076             -5.097              
C              4.494               -10.122             -4.975              
O              3.938               -11.189             -4.69               
C              6.656               -10.86              -3.955              
H              6.773               -8.18               -4.262              
H              6.278               -10.543             -5.957              
H              6.054               -10.84              -3.158              
H              6.8                 -11.806             -4.242              
H              7.533               -10.444             -3.722              
N              3.822               -8.987              -5.18               
C              2.36                -8.898              -5.185              
C              1.754               -9.298              -3.847              
O              0.659               -9.861              -3.794              
C              1.758               -9.737              -6.318              
C              2.536               -9.635              -7.602              
C              2.532               -8.461              -8.344              
C              3.288               -10.709             -8.072              
C              3.246               -8.358              -9.515              
C              4.005               -10.616             -9.248              
C              3.981               -9.439              -9.963              
O              4.694               -9.341              -11.131             
H              4.439               -8.152              -5.34               
H              2.105               -7.937              -5.372              
H              1.749               -10.687             -6.028              
H              0.833               -9.415              -6.483              
H              1.997               -7.676              -8.018              
H              3.307               -11.558             -7.546              
H              3.237               -7.504              -10.043             
H              4.537               -11.396             -9.578              
H              4.306               -8.612              -11.694             
N              2.437               -9.006              -2.744              
C              1.858               -9.319              -1.449              
C              0.984               -8.205              -0.895              
O              0.272               -8.442              0.084               
C              2.951               -9.68               -0.444              
C              3.253               -11.169             -0.446              
C              4.387               -11.523             0.484               
N              5.67                -11.345             -0.182              
C              6.833               -11.751             0.31                
N              6.88                -12.371             1.48                
N              7.95                -11.528             -0.367              
H              3.35                -8.568              -2.885              
H              1.29                -10.159             -1.54               
H              3.775               -9.197              -0.692              
H              2.641               -9.429              0.458               
H              2.438               -11.672             -0.156              
H              3.505               -11.453             -1.372              
H              4.342               -10.926             1.275               
H              4.285               -12.473             0.754               
H              5.675               -10.881             -1.078              
H              6.051               -12.561             1.999               
H              7.772               -12.659             1.855               
H              7.91                -11.07              -1.259              
H              8.831               -11.815             0.006               
N              0.988               -7.015              -1.501              
C              0.05                -5.955              -1.135              
C              -1.001              -5.828              -2.234              
O              -0.707              -5.347              -3.33               
C              0.76                -4.621              -0.913              
C              1.911               -4.678              0.053               
C              1.735               -5.148              1.352               
C              3.18                -4.255              -0.331              
C              2.789               -5.195              2.248               
C              4.237               -4.3                0.55                
C              4.042               -4.773              1.837               
O              5.112               -4.806              2.708               
H              1.707               -6.911              -2.245              
H              -0.412              -6.22               -0.291              
H              1.105               -4.301              -1.797              
H              0.089               -3.966              -0.563              
H              0.826               -5.458              1.644               
H              3.321               -3.916              -1.26               
H              2.649               -5.53               3.178               
H              5.148               -3.992              0.266               
H              4.845               -5.3                3.533               
N              -2.233              -6.233              -1.932              
C              -3.337              -6.075              -2.867              
C              -4.292              -4.95               -2.49               
O              -5.177              -4.615              -3.289              
C              -4.121              -7.388              -2.993              
C              -3.299              -8.618              -3.372              
C              -4.09               -9.889              -3.093              
C              -2.862              -8.544              -4.835              
H              -2.332              -6.661              -0.992              
H              -2.953              -5.871              -3.786              
H              -4.547              -7.572              -2.113              
H              -4.813              -7.262              -3.694              
H              -2.458              -8.627              -2.834              
H              -4.933              -9.882              -3.63               
H              -3.541              -10.686             -3.345              
H              -4.316              -9.935              -2.12               
H              -2.305              -7.726              -4.973              
H              -2.326              -9.357              -5.062              
H              -3.671              -8.501              -5.421              
N              -4.148              -4.366              -1.304              
C              -4.876              -3.154              -0.97               
C              -3.994              -2.287              -0.082              
O              -2.991              -2.743              0.471               
C              -6.226              -3.453              -0.302              
C              -6.107              -4.422              0.839               
H              -3.49               -4.84               -0.66               
H              -5.023              -2.649              -1.819              
H              -6.599              -2.593              0.038               
H              -6.834              -3.837              -0.994              
O              -5.724              -4.043              1.939               
N              -6.459              -5.681              0.594               
H              -6.778              -5.937              -0.32               
H              -6.406              -6.367              1.316               
N              -4.361              -1.01               0.002               
C              -3.526              -0.045              0.701               
C              -3.354              -0.415              2.169               
O              -2.29               -0.167              2.745               
C              -4.128              1.35                0.568               
C              -3.173              2.448               0.882               
C              -2.28               2.902               -0.078              
C              -3.136              3.012               2.149               
C              -1.38               3.908               0.217               
C              -2.261              4.024               2.446               
C              -1.367              4.473               1.474               
H              -5.255              -0.778              -0.455              
H              -2.61               -0.088              0.282               
H              -4.431              1.459               -0.368              
H              -4.89               1.41                1.198               
H              -2.287              2.501               -0.99               
H              -3.764              2.669               2.855               
H              -0.735              4.222               -0.493              
H              -2.258              4.447               3.367               
H              -0.72               5.203               1.692               
N              -4.394              -1.006              2.776               
C              -4.354              -1.423              4.183               
C              -3.151              -2.304              4.497               
O              -2.483              -2.13               5.528               
C              -5.63               -2.191              4.521               
C              -6.729              -1.299              4.979               
O              -6.468              -0.086              5.128               
O              -7.847              -1.811              5.197               
H              -5.226              -1.142              2.165               
H              -4.26               -0.581              4.737               
H              -5.916              -2.676              3.699               
H              -5.408              -2.842              5.241               
N              -2.905              -3.304              3.647               
C              -1.843              -4.261              3.922               
C              -0.47               -3.608              3.814               
O              0.439               -3.931              4.588               
C              -1.959              -5.446              2.969               
C              -3.219              -6.255              3.199               
O              -3.739              -6.257              4.337               
O              -3.685              -6.892              2.232               
H              -3.511              -3.333              2.815               
H              -1.951              -4.562              4.878               
H              -1.97               -5.095              2.04                
H              -1.171              -6.034              3.11                
N              -0.312              -2.688              2.858               
C              0.898               -1.878              2.758               
C              0.783               -0.992              1.511               
C              1.935               -0.049              1.284               
C              1.903               1.239               1.799               
C              3.014               -0.418              0.496               
C              2.948               2.124               1.574               
C              4.062               0.464               0.252               
C              4.035               1.739               0.79                
H              -1.115              -2.603              2.204               
H              1.674               -2.514              2.706               
H              0.718               -1.591              0.72                
H              -0.044              -0.448              1.603               
H              1.12                1.537               2.341               
H              3.042               -1.337              0.094               
H              2.917               3.046               1.978               
H              4.842               0.165               -0.323              
H              4.778               2.379               0.625               
H              7.73395             -7.45501            -0.715218           
H              1.03732             -1.2834             3.66642             
