171
1.xyz
C              2.387               -13.991             -20.654             
O              1.833               -15.096             -20.762             
N              1.791               -12.914             -20.154             
C              0.383               -12.875             -19.79              
C              -0.41               -12.317             -20.965             
O              -0.011              -11.314             -21.559             
C              0.181               -11.997             -18.555             
C              -1.22               -11.941             -17.952             
C              -1.501              -13.228             -17.189             
C              -1.375              -10.712             -17.051             
H              2.43                -12.086             -20.043             
H              0.07                -13.806             -19.611             
H              0.8                 -12.33              -17.84              
H              0.438               -11.061             -18.801             
H              -1.887              -11.838             -18.685             
H              -0.829              -13.336             -16.456             
H              -2.419              -13.189             -16.795             
H              -1.44               -14.007             -17.814             
H              -1.222              -9.886              -17.591             
H              -2.298              -10.698             -16.669             
H              -0.705              -10.759             -16.311             
N              -1.527              -12.965             -21.296             
C              -2.454              -12.473             -22.308             
C              -3.868              -12.539             -21.752             
O              -4.209              -13.478             -21.026             
C              -2.359              -13.293             -23.6               
C              -3.276              -12.818             -24.717             
C              -2.942              -13.53              -26.028             
N              -3.57               -14.849             -26.122             
C              -2.975              -15.956             -26.572             
N              -1.707              -15.943             -26.96              
N              -3.658              -17.094             -26.632             
H              -1.679              -13.854             -20.767             
H              -2.233              -11.521             -22.515             
H              -1.419              -13.245             -23.929             
H              -2.596              -14.237             -23.386             
H              -4.218              -13.025             -24.486             
H              -3.154              -11.844             -24.858             
H              -3.263              -12.958             -26.778             
H              -1.951              -13.632             -26.077             
H              -4.534              -14.93              -25.822             
H              -1.169              -15.103             -26.902             
H              -1.283              -16.781             -27.313             
H              -4.61               -17.118             -26.32              
H              -3.226              -17.921             -26.984             
N              -4.688              -11.551             -22.088             
C              -6.07               -11.582             -21.658             
C              -6.798              -10.288             -21.946             
O              -6.26               -9.344              -22.543             
H              -4.27               -10.8               -22.653             
H              -6.551              -12.347             -22.123             
H              -6.109              -11.773             -20.661             
N              -8.052              -10.271             -21.498             
C              -9.006              -9.246              -21.909             
C              -8.585              -7.852              -21.454             
O              -8.187              -7.645              -20.303             
C              -10.388             -9.578              -21.348             
H              -8.288              -11.041             -20.839             
H              -9.069              -9.248              -22.919             
H              -10.82              -10.273             -21.92              
H              -10.293             -9.924              -20.416             
H              -10.95              -8.753              -21.343             
N              -8.691              -6.89               -22.367             
C              -8.468              -5.492              -22.029             
C              -9.653              -4.937              -21.251             
O              -10.805             -5.319              -21.474             
C              -8.262              -4.657              -23.292             
C              -6.941              -4.881              -23.997             
C              -6.919              -4.141              -25.33              
C              -5.511              -3.81               -25.786             
N              -5.504              -3.262              -27.173             
H              -8.941              -7.219              -23.319             
H              -7.644              -5.421              -21.456             
H              -9.003              -4.874              -23.932             
H              -8.325              -3.688              -23.037             
H              -6.2                -4.536              -23.428             
H              -6.818              -5.854              -24.169             
H              -7.352              -4.717              -26.022             
H              -7.432              -3.29               -25.232             
H              -5.116              -3.131              -25.164             
H              -4.954              -4.642              -25.76              
H              -5.381              -2.271              -27.136             
H              -4.753              -3.674              -27.687             
H              -6.373              -3.477              -27.617             
N              -9.361              -4.001              -20.345             
C              -10.421             -3.365              -19.569             
C              -11.386             -2.591              -20.459             
O              -12.555             -2.407              -20.094             
C              -9.811              -2.436              -18.522             
H              -8.361              -3.779              -20.248             
H              -10.939             -4.082              -19.08              
H              -10.243             -1.537              -18.584             
H              -9.963              -2.817              -17.611             
H              -8.83               -2.348              -18.688             
N              -10.924             -2.126              -21.624             
C              -11.788             -1.335              -22.495             
C              -12.877             -2.176              -23.15              
O              -13.844             -1.612              -23.672             
C              -10.954             -0.632              -23.569             
C              -10.448             -1.548              -24.676             
C              -9.498              -0.846              -25.629             
O              -9.069              0.286               -25.32              
O              -9.182              -1.427              -26.688             
H              -9.949              -2.366              -21.839             
H              -12.217             -0.59               -21.959             
H              -11.523             0.055               -23.988             
H              -10.167             -0.237              -23.127             
H              -9.958              -2.29               -24.26              
H              -11.22              -1.856              -25.199             
N              -12.753             -3.499              -23.133             
C              -13.798             -4.36               -23.67              
C              -14.857             -4.595              -22.598             
O              -14.682             -4.213              -21.442             
C              -13.19              -5.669              -24.175             
O              -12.68              -6.441              -23.078             
C              -12.056             -5.385              -25.157             
H              -11.874             -3.852              -22.717             
H              -14.231             -3.896              -24.444             
H              -13.92              -6.221              -24.636             
H              -11.27              -5.007              -24.665             
H              -11.783             -6.234              -25.612             
H              -12.363             -4.725              -25.845             
H              -11.982             -5.918              -22.578             
N              -16.006             -5.19               -22.957             
C              -17.079             -5.391              -21.961             
C              -16.79              -6.551              -21.011             
O              -17.517             -7.547              -20.953             
C              -18.312             -5.643              -22.846             
C              -17.91              -5.29               -24.245             
C              -16.451             -5.541              -24.313             
H              -17.242             -4.536              -21.444             
H              -18.595             -6.611              -22.787             
H              -19.087             -5.074              -22.54              
H              -18.414             -5.861              -24.904             
H              -18.128             -4.324              -24.434             
H              -16.243             -6.499              -24.51              
H              -16                 -4.957              -24.99              
N              -15.706             -6.424              -20.24              
C              -15.344             -7.482              -19.304             
C              -16.423             -7.688              -18.247             
O              -16.467             -8.745              -17.609             
C              -13.976             -7.189              -18.643             
C              -13.967             -5.808              -17.98              
C              -12.853             -7.31               -19.67              
C              -12.715             -5.532              -17.155             
H              -15.177             -5.552              -20.363             
H              -15.302             -8.333              -19.841             
H              -13.828             -7.873              -17.935             
H              -14.041             -5.114              -18.691             
H              -14.762             -5.742              -17.38              
H              -11.974             -7.178              -19.217             
H              -12.881             -8.216              -20.086             
H              -12.973             -6.615              -20.376             
H              -11.916             -5.586              -17.749             
H              -12.782             -4.62               -16.757             
H              -12.646             -6.214              -16.431             
N              -17.312             -6.71               -18.049             
C              -18.386             -6.886              -17.078             
C              -19.111             -5.557              -16.829             
C              -19.939             -5.023              -18.003             
C              -19.11              -4.261              -19.02              
O              -19.71              -3.618              -19.909             
O              -17.864             -4.297              -18.928             
H              -17.175             -5.866              -18.616             
H              -17.991             -7.141              -16.18              
H              -19.73              -5.69               -16.069             
H              -18.426             -4.875              -16.618             
H              -20.345             -5.792              -18.462             
H              -20.614             -4.405              -17.643             
H              3.3935              -13.8598            -20.959             
H              -19.1077            -7.64936            -17.3854            
