246
2.xyz
C              -5.735              -10.152             9.557               
O              -5.108              -10.557             10.547              
N              -5.551              -8.948              9.025               
C              -4.524              -8.039              9.511               
C              -5.003              -6.596              9.367               
O              -5.999              -6.301              8.681               
C              -3.183              -8.29               8.79                
C              -3.201              -8.033              7.301               
C              -3.739              -8.962              6.455               
C              -2.675              -6.864              6.763               
C              -3.759              -8.746              5.074               
C              -2.691              -6.641              5.38                
C              -3.252              -7.582              4.573               
O              -3.276              -7.394              3.18                
H              -6.197              -8.717              8.242               
H              -4.373              -8.22               10.485              
H              -2.496              -7.693              9.205               
H              -2.928              -9.246              8.941               
H              -4.128              -9.814              6.812               
H              -2.282              -6.174              7.362               
H              -4.145              -9.445              4.471               
H              -2.295              -5.806              5.011               
H              -3.783              -6.562              2.985               
N              -4.255              -5.685              9.979               
C              -4.561              -4.256              9.909               
C              -3.857              -3.693              8.686               
O              -2.638              -3.519              8.669               
C              -4.139              -3.52               11.18               
C              -4.598              -4.154              12.49               
C              -4.302              -3.288              13.724              
C              -6.055              -4.516              12.462              
H              -3.444              -6.068              10.505              
H              -5.542              -4.146              9.792               
H              -3.145              -3.486              11.197              
H              -4.519              -2.603              11.143              
H              -4.139              -5.047              12.603              
H              -4.773              -2.413              13.63               
H              -4.627              -3.761              14.541              
H              -3.318              -3.137              13.789              
H              -6.233              -5.173              11.724              
H              -6.324              -4.93               13.336              
H              -6.611              -3.695              12.307              
N              -4.626              -3.423              7.638               
C              -4.034              -2.776              6.48                
C              -3.538              -1.372              6.804               
O              -2.526              -0.929              6.244               
C              -5.044              -2.741              5.357               
C              -4.568              -1.895              4.208               
C              -5.5                -1.961              3.019               
O              -5.233              -2.804              2.144               
O              -6.49               -1.166              2.993               
H              -5.607              -3.695              7.717               
H              -3.261              -3.332              6.137               
H              -5.164              -3.654              5.028               
H              -5.868              -2.344              5.702               
H              -4.531              -0.957              4.502               
H              -3.69               -2.227              3.913               
N              -4.225              -0.66               7.706               
C              -3.85               0.703               8.075               
C              -4.409              1.018               9.456               
O              -5.36               0.376               9.904               
C              -4.36               1.726               7.055               
O              -5.774              1.716               6.902               
H              -5.041              -1.16               8.116               
H              -2.853              0.748               8.127               
H              -4.075              2.643               7.349               
H              -3.939              1.528               6.164               
H              -6.175              2.421               7.484               
N              -3.806              2.031               10.107              
C              -4.296              2.612               11.361              
C              -4.233              4.131               11.243              
O              -3.225              4.683               10.794              
C              -3.455              2.158               12.575              
C              -3.438              0.636               12.703              
C              -2.032              2.71                12.467              
H              -2.935              2.375               9.626               
H              -5.25               2.349               11.473              
H              -3.894              2.513               13.397              
H              -3.126              0.235               11.843              
H              -2.817              0.372               13.44               
H              -4.36               0.311               12.91               
H              -1.886              3.379               13.194              
H              -1.382              1.958               12.562              
H              -1.918              3.146               11.576              
N              -5.307              4.806               11.656              
C              -5.386              6.267               11.592              
C              -4.625              6.879               12.758              
O              -4.925              6.568               13.912              
C              -6.846              6.718               11.701              
C              -7.646              6.467               10.439              
O              -7.048              6.49                9.346               
O              -8.875              6.257               10.547              
H              -6.077              4.21                12.024              
H              -4.92               6.551               10.751              
H              -7.266              6.216               12.452              
H              -6.851              7.694               11.896              
N              -3.682              7.785               12.47               
C              -3.072              8.582               13.537              
C              -4.153              9.363               14.275              
O              -5.091              9.905               13.675              
C              -1.985              9.519               12.978              
C              -1.58               10.594              13.994              
C              -0.776              8.734               12.599              
H              -3.437              7.866               11.477              
H              -2.643              7.954               14.188              
H              -2.37               9.999               12.191              
H              -0.591              10.721              13.961              
H              -2.038              11.451              13.765              
H              -1.851              10.3                14.908              
H              -0.747              8.603               11.603              
H              0.056               9.22                12.887              
H              -0.795              7.833               13.044              
N              -4.005              9.455               15.589              
C              -4.97               10.104              16.467              
C              -6.268              9.318               16.592              
O              -7.217              9.8                 17.223              
C              -5.256              11.551              16.049              
C              -5.964              12.403              17.103              
C              -5.152              12.554              18.376              
O              -3.925              12.327              18.325              
O              -5.741              12.898              19.427              
H              -3.12               9.014               15.95               
H              -4.562              10.225              17.388              
H              -4.39               11.983              15.853              
H              -5.837              11.525              15.252              
H              -6.101              13.299              16.728              
H              -6.808              11.96               17.338              
N              -6.34               8.109               16.014              
C              -7.458              7.22                16.264              
C              -7.239              6.348               17.525              
O              -6.142              6.287               18.08               
H              -5.544              7.882               15.392              
H              -8.304              7.756               16.39               
H              -7.596              6.608               15.473              
N              -8.301              5.633               17.909              
C              -8.279              4.802               19.112              
C              -7.193              3.737               19.014              
O              -6.402              3.534               19.941              
C              -9.667              4.167               19.339              
C              -9.652              3.202               20.517              
C              -10.715             5.242               19.575              
H              -9.128              5.719               17.288              
H              -8.064              5.394               19.896              
H              -9.891              3.632               18.526              
H              -8.905              3.443               21.136              
H              -10.522             3.259               21.006              
H              -9.519              2.269               20.182              
H              -11.142             5.098               20.468              
H              -10.278             6.141               19.553              
H              -11.41              5.19                18.858              
N              -7.155              3.012               17.899              
C              -6.19               1.926               17.793              
C              -4.776              2.469               17.807              
O              -3.872              1.849               18.377              
C              -6.455              1.128               16.515              
H              -7.822              3.271               17.172              
H              -6.309              1.31                18.58               
H              -7.399              1.274               16.224              
H              -5.832              1.436               15.798              
H              -6.306              0.157               16.695              
N              -4.552              3.599               17.133              
C              -3.203              4.134               17.036              
C              -2.723              4.594               18.388              
O              -1.575              4.33                18.764              
C              -3.167              5.281               16.043              
C              -1.843              5.927               15.927              
C              -0.79               5.516               15.167              
C              -1.421              7.125               16.596              
N              0.263               6.389               15.317              
C              -0.1                7.384               16.187              
C              -2.036              8.002               17.498              
C              0.625               8.484               16.657              
C              -1.321              9.104               17.955              
C              -0.004              9.33                17.535              
H              -5.382              4.033               16.711              
H              -2.601              3.388               16.73               
H              -3.414              4.935               15.142              
H              -3.819              5.978               16.331              
H              -0.778              4.705               14.587              
H              1.151               6.311               14.864              
H              -2.969              7.846               17.811              
H              1.57                8.633               16.354              
H              -1.756              9.734               18.587              
H              0.483               10.131              17.889              
N              -3.598              5.276               19.131              
C              -3.234              5.736               20.462              
C              -2.908              4.564               21.365              
O              -2.046              4.684               22.24               
C              -4.359              6.571               21.071              
C              -4.579              7.911               20.4                
C              -5.673              8.676               21.126              
C              -6.067              9.937               20.398              
N              -7.347              10.493              20.935              
H              -4.515              5.438               18.691              
H              -2.421              6.329               20.391              
H              -5.207              6.043               21.008              
H              -4.14               6.732               22.035              
H              -3.738              8.439               20.437              
H              -4.858              7.766               19.457              
H              -6.476              8.086               21.207              
H              -5.343              8.92                22.037              
H              -5.346              10.623              20.507              
H              -6.185              9.736               19.424              
H              -7.352              11.484              20.812              
H              -8.114              10.088              20.44               
H              -7.418              10.273              21.906              
N              -3.562              3.421               21.154              
C              -3.233              2.227               21.921              
C              -2.042              1.464               21.36               
O              -1.687              0.42                21.911              
C              -4.433              1.302               22.063              
H              -4.292              3.459               20.428              
H              -3.017              2.504               22.875              
H              -5.275              1.826               21.939              
H              -4.384              0.582               21.371              
H              -4.43               0.888               22.973              
N              -1.417              1.943               20.276              
C              -0.164              1.38                19.819              
C              -0.27               0.357               18.713              
O              0.762               -0.191              18.304              
H              -1.905              2.732               19.812              
H              0.453               2.144               19.509              
H              0.324               0.956               20.621              
N              -1.473              0.073               18.225              
C              -1.621              -0.794              17.064              
C              -1.05               -0.109              15.838              
O              -1.047              1.119               15.724              
C              -3.095              -1.152              16.858              
C              -3.738              -2.005              17.958              
C              -5.178              -2.28               17.668              
C              -3.008              -3.313              18.123              
H              -2.265              0.507               18.725              
H              -1.107              -1.639              17.227              
H              -3.611              -0.303              16.803              
H              -3.171              -1.66               16.007              
H              -3.649              -1.514              18.832              
H              -5.27               -2.775              16.798              
H              -5.58               -2.839              18.4                
H              -5.691              -1.418              17.604              
H              -2.051              -3.142              18.372              
H              -3.441              -3.858              18.846              
H              -3.034              -3.83               17.264              
N              -0.544              -0.917              14.923              
H              -0.705              -1.923              15.081              
H              -6.50139            -10.746             9.12146             
H              -0.0444082          -0.539531           14.1438             
