252
3.xyz
C              30.715              15.236              4.226               
C              30.525              13.843              4.813               
O              30.897              13.58               5.957               
C              32.03               15.333              3.452               
C              32.304              16.72               2.866               
C              31.162              17.175              1.972               
C              31.358              18.603              1.483               
N              30.219              19.035              0.632               
H              29.972              15.413              3.573               
H              32.777              15.106              4.071               
H              32.001              14.679              2.7                 
H              32.41               17.371              3.616               
H              33.144              16.683              2.329               
H              31.113              16.573              1.179               
H              30.311              17.131              2.487               
H              31.428              19.21               2.275               
H              32.204              18.65               0.952               
H              30.13               20.03               0.675               
H              30.385              18.755              -0.313              
H              29.376              18.61               0.963               
N              29.942              12.945              4.014               
C              29.529              11.628              4.482               
C              30.088              10.547              3.575               
O              30.29               10.763              2.377               
C              28                  11.496              4.478               
C              27.293              12.472              5.395               
C              25.793              12.223              5.367               
N              25.05               13.24               6.106               
C              23.724              13.286              6.175               
N              22.995              12.363              5.562               
N              23.129              14.25               6.862               
H              29.81               13.27               3.03                
H              29.886              11.487              5.411               
H              27.68               11.652              3.548               
H              27.77               10.572              4.768               
H              27.61               12.347              6.326               
H              27.457              13.4                5.087               
H              25.497              12.225              4.415               
H              25.621              11.328              5.774               
H              25.573              13.947              6.591               
H              23.421              11.615              5.061               
H              21.988              12.417              5.604               
H              23.685              14.932              7.345               
H              22.133              14.3                6.902               
N              30.29               9.362               4.135               
C              30.731              8.253               3.318               
C              31.209              7.09                4.158               
O              31.195              7.125               5.389               
H              30.114              9.31                5.145               
H              29.969              7.946               2.724               
H              31.482              8.558               2.711               
N              31.65               6.061               3.448               
C              32.054              4.802               4.053               
C              33.486              4.873               4.56                
O              34.374              5.422               3.9                 
C              31.941              3.692               3.015               
C              30.549              3.588               2.438               
S              29.383              3.164               3.734               
C              29.845              1.452               3.953               
H              31.682              6.233               2.415               
H              31.453              4.624               4.842               
H              32.586              3.875               2.269               
H              32.178              2.817               3.445               
H              30.304              4.473               2.006               
H              30.546              2.886               1.705               
H              30.842              1.363               3.909               
H              29.523              1.126               4.844               
H              29.432              0.895               3.23                
N              33.705              4.303               5.741               
C              35.022              4.303               6.375               
C              35.36               2.887               6.82                
O              34.478              2.152               7.288               
C              35.098              5.29                7.55                
C              34.114              4.928               8.666               
C              34.872              6.723               7.082               
C              34.44               5.626               9.963               
H              32.866              3.861               6.172               
H              35.677              4.544               5.661               
H              36.023              5.248               7.93                
H              33.201              5.186               8.376               
H              34.154              3.946               8.809               
H              35.007              7.348               7.848               
H              35.521              6.942               6.356               
H              33.94               6.817               6.736               
H              34.404              6.616               9.827               
H              33.775              5.361               10.661              
H              35.357              5.364               10.261              
N              36.625              2.477               6.711               
C              37.03               1.132               7.145               
C              37.219              1.082               8.653               
O              38.072              1.776               9.221               
C              38.351              0.906               6.401               
C              38.897              2.302               6.208               
C              37.705              3.2                 6.018               
H              36.359              0.446               6.843               
H              38.978              0.356               6.948               
H              38.194              0.465               5.521               
H              39.433              2.577               7.015               
H              39.501              2.327               5.403               
H              37.852              4.096               6.436               
H              37.485              3.316               5.049               
N              36.408              0.244               9.295               
C              36.438              0.137               10.757              
C              37.805              -0.226              11.321              
O              38.175              0.316               12.374              
C              35.297              -0.76               11.25               
C              35.332              -0.871              12.76               
C              33.945              -0.23               10.792              
H              35.776              -0.307              8.694               
H              36.172              1.042               11.139              
H              35.449              -1.674              10.886              
H              34.864              -0.085              13.167              
H              34.873              -1.713              13.047              
H              36.282              -0.889              13.075              
H              33.45               -0.957              10.316              
H              33.421              0.069               11.589              
H              34.086              0.542               10.173              
N              38.607              -1.102              10.701              
C              39.942              -1.383              11.262              
C              40.856              -0.17               11.318              
O              41.885              -0.228              12                  
C              40.493              -2.465              10.328              
C              39.276              -3.101              9.736               
C              38.327              -1.975              9.546               
H              39.85               -1.808              12.184              
H              41.067              -2.057              9.615               
H              41.034              -3.134              10.841              
H              39.503              -3.541              8.864               
H              38.906              -3.792              10.362              
H              38.496              -1.482              8.691               
H              37.372              -2.28               9.566               
N              40.522              0.914               10.622              
C              41.362              2.098               10.629              
C              40.976              3.095               11.701              
O              41.573              4.17                11.747              
C              41.312              2.823               9.284               
C              42.155              2.248               8.171               
C              42.478              0.9                 8.119               
C              42.632              3.074               7.167               
C              43.243              0.387               7.074               
C              43.409              2.582               6.13                
C              43.703              1.241               6.085               
O              44.474              0.758               5.048               
H              39.636              0.837               10.092              
H              42.321              1.805               10.801              
H              40.352              2.837               8.973               
H              41.604              3.778               9.434               
H              42.161              0.283               8.839               
H              42.41               4.052               7.188               
H              43.456              -0.588              7.04                
H              43.751              3.201               5.423               
H              45.107              1.471               4.753               
N              40                  2.791               12.557              
C              39.564              3.765               13.549              
C              39.521              3.138               14.939              
O              39.549              1.914               15.105              
C              38.209              4.415               13.186              
C              38.25               5.016               11.774              
C              37.062              3.413               13.342              
H              39.602              1.848               12.456              
H              40.234              4.515               13.569              
H              38.057              5.17                13.815              
H              38.917              4.517               11.225              
H              37.346              4.939               11.359              
H              38.513              5.977               11.835              
H              37.203              2.884               14.177              
H              36.199              3.912               13.397              
H              37.052              2.804               12.551              
N              39.488              4.011               15.949              
C              39.368              3.624               17.35               
C              38.19               4.384               17.946              
O              37.929              5.524               17.556              
C              40.658              4.017               18.124              
C              40.861              3.275               19.431              
C              41.363              1.867               19.2                
O              42.602              1.662               19.142              
O              40.524              0.967               19.033              
H              39.557              5.015               15.641              
H              39.205              2.645               17.419              
H              41.42               3.813               17.534              
H              40.592              4.978               18.324              
H              41.538              3.751               19.954              
H              39.998              3.212               19.889              
N              37.505              3.78                18.92               
C              36.464              4.524               19.627              
C              37.061              5.8                 20.204              
O              38.19               5.8                 20.703              
C              35.89               3.698               20.776              
C              35.091              2.466               20.356              
C              34.546              1.745               21.588              
C              33.691              0.533               21.23               
N              33.13               -0.075              22.47               
H              37.76               2.812               19.113              
H              35.742              4.769               18.978              
H              36.65               3.392               21.354              
H              35.287              4.29                21.317              
H              34.328              2.752               19.787              
H              35.686              1.846               19.857              
H              35.316              1.436               22.144              
H              33.986              2.384               22.112              
H              32.946              0.826               20.64               
H              34.259              -0.137              20.762              
H              33.238              -1.068              22.429              
H              33.619              0.284               23.264              
H              32.16               0.155               22.541              
N              36.311              6.899               20.129              
C              36.766              8.18                20.66               
C              35.695              8.709               21.597              
O              34.544              8.886               21.184              
C              37.042              9.181               19.53               
C              37.392              10.568              20.035              
C              38.666              10.866              20.487              
C              36.435              11.576              20.06               
C              38.977              12.122              20.95               
C              36.74               12.837              20.511              
C              38.008              13.107              20.96               
O              38.291              14.37               21.412              
H              35.39               6.765               19.667              
H              37.597              8.025               21.188              
H              37.806              8.843               18.994              
H              36.225              9.252               18.97               
H              39.373              10.153              20.477              
H              35.507              11.373              19.741              
H              39.904              12.328              21.279              
H              36.04               13.557              20.513              
H              38.024              14.445              22.372              
N              36.08               8.983               22.837              
C              35.123              9.356               23.869              
C              35.664              10.442              24.794              
O              34.878              11.152              25.437              
C              34.731              8.129               24.7                
C              33.595              8.375               25.67               
C              32.373              8.846               24.893              
N              31.248              9.234               25.74               
C              31.072              10.459              26.207              
N              31.971              11.399              25.941              
N              30.005              10.747              26.937              
O              36.816              10.774              25.043              
H              37.103              8.91                23.003              
H              34.282              9.704               23.424              
H              34.455              7.406               24.072              
H              35.53               7.841               25.221              
H              33.361              7.536               26.133              
H              33.846              9.085               26.307              
H              32.648              9.631               24.331              
H              32.087              8.098               24.287              
H              30.574              8.531               25.979              
H              32.77               11.213              25.379              
H              31.841              12.328              26.317              
H              29.321              10.035              27.117              
H              29.878              11.665              27.306              
H              30.6822             15.9595             4.99393             
