240
4.xyz
C              18.029              -14.801             9.56                
O              17.028              -14.57              10.244              
N              19.198              -15.14              10.064              
C              19.413              -15.282             11.493              
C              19.629              -13.905             12.095              
O              20.193              -13.009             11.461              
H              19.951              -15.297             9.356               
H              18.614              -15.708             11.915              
H              20.219              -15.848             11.659              
N              19.176              -13.716             13.315              
C              19.338              -12.424             13.99               
C              19.281              -12.682             15.512              
O              18.998              -13.805             15.945              
C              18.206              -11.46              13.557              
H              18.708              -14.529             13.752              
H              20.229              -12.051             13.77               
H              17.337              -11.943             13.604              
H              18.197              -10.678             14.173              
H              18.38               -11.159             12.624              
N              19.566              -11.656             16.298              
C              19.458              -11.7               17.746              
C              18.499              -10.591             18.094              
O              18.624              -9.47               17.577              
C              20.814              -11.489             18.452              
C              21.688              -12.746             18.45               
C              22.851              -12.641             19.436              
C              24.181              -12.351             18.776              
N              24.269              -10.966             18.237              
H              19.881              -10.795             15.779              
H              19.069              -12.565             18.017              
H              21.301              -10.769             17.976              
H              20.635              -11.233             19.393              
H              21.123              -13.534             18.701              
H              22.057              -12.883             17.53               
H              22.647              -11.905             20.088              
H              22.922              -13.508             19.936              
H              24.919              -12.487             19.45               
H              24.323              -13.005             18.021              
H              25.225              -10.746             18.043              
H              23.734              -10.903             17.395              
H              23.908              -10.324             18.912              
N              17.537              -10.905             18.93               
C              16.521              -9.969              19.384              
C              17.131              -8.901              20.306              
O              17.87               -9.227              21.229              
C              15.405              -10.698             20.132              
C              14.302              -9.751              20.532              
C              13.402              -9.26               19.584              
C              14.144              -9.362              21.862              
C              12.376              -8.384              19.96               
C              13.094              -8.51               22.237              
C              12.226              -8.023              21.28               
H              17.559              -11.911             19.254              
H              16.179              -9.482              18.574              
H              15.025              -11.37              19.531              
H              15.786              -11.082             20.947              
H              13.484              -9.531              18.633              
H              14.779              -9.69               22.555              
H              11.757              -8.026              19.25               
H              12.987              -8.261              23.212              
H              11.481              -7.403              21.546              
N              16.732              -7.651              20.092              
C              17.248              -6.517              20.867              
C              16.179              -5.922              21.759              
O              16.357              -5.909              22.984              
C              17.924              -5.44               19.945              
C              18.363              -4.205              20.749              
C              19.077              -6.027              19.149              
H              16.026              -7.544              19.333              
H              17.995              -6.859              21.453              
H              17.235              -5.136              19.296              
H              19.26               -4.378              21.149              
H              18.41               -3.418              20.138              
H              17.698              -4.033              21.472              
H              19.615              -6.629              19.739              
H              18.715              -6.55               18.377              
H              19.657              -5.286              18.809              
N              15.067              -5.423              21.156              
C              14.022              -4.724              21.899              
C              12.671              -4.656              21.21               
O              12.577              -4.755              19.979              
C              14.482              -3.301              22.202              
H              15.038              -5.587              20.131              
H              13.901              -5.195              22.802              
H              13.719              -2.67               22.068              
H              14.797              -3.248              23.149              
H              15.23               -3.056              21.587              
N              11.617              -4.469              22.027              
C              10.243              -4.248              21.553              
C              10.026              -2.728              21.584              
O              10.478              -2.057              22.519              
C              9.22                -4.901              22.483              
O              9.363               -6.309              22.511              
H              11.866              -4.495              23.046              
H              10.189              -4.543              20.615              
H              9.35                -4.543              23.405              
H              8.303               -4.674              22.16               
H              9.771               -6.62               21.654              
N              9.338               -2.194              20.576              
C              9.053               -0.76               20.441              
C              7.559               -0.546              20.264              
O              7.099               -0.533              19.131              
C              9.84                -0.136              19.275              
C              11.319              -0.186              19.469              
H              9.007               -2.9                19.867              
H              9.344               -0.302              21.283              
H              9.61                -0.629              18.431              
H              9.562               0.823               19.177              
N              11.94               0.551               20.455              
C              12.255              -0.883              18.789              
C              13.227              0.256               20.372              
N              13.46               -0.594              19.371              
H              12.1                -1.488              18.015              
H              13.943              0.623               20.982              
H              14.347              -0.947              19.105              
N              6.779               -0.435              21.369              
C              5.325               -0.189              21.233              
C              5.084               1.285               20.897              
O              5.572               2.173               21.61               
C              4.764               -0.582              22.601              
C              5.946               -1.05               23.422              
C              7.168               -0.479              22.786              
H              4.931               -0.785              20.536              
H              4.319               0.205               23.046              
H              4.085               -1.32               22.512              
H              5.845               -0.733              24.376              
H              5.974               -2.06               23.433              
H              7.368               0.437               23.122              
H              7.963               -1.068              22.913              
N              4.409               1.554               19.773              
C              4.214               2.917               19.275              
C              2.729               3.252               19.141              
O              1.959               2.447               18.593              
C              4.975               3.124               17.931              
C              6.502               2.774               18.083              
C              4.804               4.569               17.429              
C              7.336               2.842               16.839              
H              4.036               0.711               19.285              
H              4.584               3.53                19.981              
H              4.596               2.499               17.262              
H              6.877               3.4                 18.78               
H              6.547               1.842               18.469              
H              5.251               4.661               16.544              
H              3.833               4.769               17.34               
H              5.22                5.192               18.085              
H              7.309               3.77                16.464              
H              8.284               2.601               17.054              
H              6.98                2.201               16.157              
N              2.339               4.454               19.612              
C              0.953               4.91                19.477              
C              0.724               5.189               18.008              
O              1.462               5.957               17.413              
C              0.687               6.176               20.341              
C              -0.675              6.832               20.113              
C              -1.733              6.197               20.96               
H              3.086               5.004               20.062              
H              0.359               4.164               19.749              
H              0.752               5.915               21.305              
H              1.399               6.85                20.134              
H              -0.6                7.796               20.347              
H              -0.914              6.729               19.152              
O              -1.888              6.517               22.142              
N              -2.475              5.277               20.374              
H              -3.214              4.783               20.889              
H              -2.311              5.055               19.392              
N              -0.309              4.569               17.417              
C              -0.639              4.729               16.022              
C              -2.144              4.929               15.87               
O              -2.893              4.899               16.848              
C              -0.119              3.539               15.19               
C              1.441               3.498               15.088              
S              2.004               2.154               14.024              
C              2.066               3.003               12.472              
H              -0.855              3.954               18.073              
H              -0.185              5.554               15.676              
H              -0.417              2.684               15.611              
H              -0.481              3.6                 14.261              
H              1.749               4.402               14.74               
H              1.808               3.404               16.031              
H              2.49                2.418               11.774              
H              1.138               3.244               12.172              
H              2.606               3.846               12.56               
N              -2.579              5.084               14.636              
C              -3.957              5.421               14.339              
C              -4.541              4.508               13.327              
O              -4.004              4.378               12.235              
C              -4.056              6.899               13.862              
C              -3.365              7.839               14.822              
C              -4.024              8.321               15.948              
C              -2.001              8.104               14.707              
C              -3.371              9.119               16.886              
C              -1.319              8.836               15.683              
C              -2.014              9.367               16.754              
O              -1.361              10.123              17.697              
H              -1.853              4.945               13.897              
H              -4.489              5.341               15.201              
H              -3.617              6.961               12.983              
H              -5.011              7.136               13.816              
H              -4.99               8.093               16.092              
H              -1.499              7.765               13.914              
H              -3.883              9.51                17.653              
H              -0.332              8.973               15.602              
H              -1.475              11.091              17.479              
N              -5.679              3.921               13.655              
C              -6.365              3.079               12.675              
C              -7.397              3.945               12.018              
O              -8.228              4.527               12.708              
C              -7.033              1.877               13.344              
C              -7.484              0.85                12.308              
C              -7.717              -0.514              12.919              
H              -6.022              4.096               14.604              
H              -5.699              2.805               11.992              
H              -6.383              1.441               13.948              
H              -7.832              2.186               13.84               
H              -8.335              1.168               11.896              
H              -6.777              0.774               11.609              
O              -7.212              -0.85               13.991              
N              -8.408              -1.353              12.202              
H              -8.602              -2.309              12.537              
H              -8.769              -1.066              11.29               
N              -7.307              4.075               10.693              
C              -8.174              4.94                9.882               
C              -9.053              4.142               8.929               
O              -8.635              3.084               8.477               
C              -7.347              6.012               9.098               
C              -6.648              6.987               10.063              
C              -6.317              5.36                8.157               
H              -6.541              3.489               10.263              
H              -8.777              5.45                10.512              
H              -7.989              6.547               8.561               
H              -6.583              7.883               9.63                
H              -7.183              7.054               10.902              
H              -5.735              6.642               10.269              
H              -5.761              4.722               8.683               
H              -6.804              4.876               7.434               
H              -5.742              6.074               7.766               
N              -10.253             4.673               8.587               
H              -10.46              5.579               9.058               
H              -10.8872            4.22406             7.93129             
H              18.0129             -14.6579            8.50604             
