374
5.xyz
C              -0.619              3.769               18.818              
C              -0.598              2.245               18.758              
O              -0.47               1.683               17.675              
C              0.802               4.323               18.82               
C              1.613               3.957               17.575              
C              0.925               4.32                16.258              
H              -1.07               4.103               17.978              
H              0.762               5.322               18.877              
H              1.29                3.966               19.619              
H              2.492               4.438               17.614              
H              1.78                2.968               17.582              
O              0.88                3.5                 15.333              
N              0.406               5.549               16.158              
H              -0.046              5.853               15.315              
H              0.481               6.171               16.964              
N              -0.737              1.567               19.894              
C              -0.737              0.105               19.897              
C              -1.97               -0.423              19.176              
O              -1.913              -1.422              18.458              
C              -0.717              -0.433              21.326              
C              0.566               -0.132              22.086              
C              0.582               -0.746              23.468              
O              -0.506              -1.039              23.999              
O              1.685               -0.959              24.012              
H              -0.841              2.143               20.743              
H              0.091               -0.233              19.44               
H              -1.459              -0.011              21.817              
H              -0.813              -1.411              21.281              
H              1.318               -0.512              21.581              
H              0.641               0.842               22.191              
N              -3.096              0.243               19.382              
C              -4.338              -0.129              18.722              
C              -4.275              0.204               17.228              
O              -4.635              -0.607              16.373              
C              -5.492              0.603               19.402              
S              -7.086              0.39                18.612              
H              -3.017              1.041               20.045              
H              -4.463              -1.122              18.811              
H              -5.554              0.269               20.345              
H              -5.269              1.581               19.415              
H              -7.798              0.842               19.154              
N              -3.812              1.406               16.915              
C              -3.653              1.834               15.532              
C              -2.74               0.853               14.784              
O              -3.024              0.457               13.653              
C              -3.13               3.293               15.477              
C              -4.229              4.243               15.975              
C              -2.677              3.672               14.072              
C              -3.754              5.654               16.269              
H              -3.576              2.008               17.731              
H              -4.554              1.761               15.105              
H              -2.361              3.362               16.093              
H              -4.949              4.281               15.282              
H              -4.618              3.855               16.812              
H              -2.317              4.603               14.079              
H              -1.964              3.041               13.771              
H              -3.453              3.62                13.447              
H              -3.376              6.054               15.436              
H              -4.526              6.202               16.585              
H              -3.051              5.624               16.977              
N              -1.661              0.434               15.434              
C              -0.749              -0.537              14.842              
C              -1.451              -1.856              14.52               
O              -1.21               -2.438              13.472              
C              0.447               -0.774              15.767              
C              1.439               -1.804              15.254              
C              2.698               -1.865              16.104              
H              -1.527              0.847               16.375              
H              -0.406              -0.154              13.973              
H              0.934               0.094               15.89               
H              0.106               -1.086              16.658              
H              1.005               -2.703              15.266              
H              1.698               -1.565              14.32               
O              3.331               -0.844              16.368              
N              3.063               -3.062              16.54               
H              3.901               -3.182              17.101              
H              2.486               -3.869              16.303              
N              -2.324              -2.323              15.405              
C              -3.058              -3.559              15.142              
C              -3.984              -3.422              13.929              
O              -4.066              -4.337              13.114              
C              -3.849              -4.018              16.37               
C              -3.012              -4.829              17.348              
O              -1.889              -5.243              16.999              
O              -3.5                -5.07               18.468              
H              -2.434              -1.76               16.26               
H              -2.378              -4.268              14.912              
H              -4.189              -3.209              16.837              
H              -4.606              -4.58               16.056              
N              -4.677              -2.296              13.79               
C              -5.473              -2.071              12.589              
C              -4.573              -2.13               11.354              
O              -4.903              -2.759              10.355              
C              -6.169              -0.71               12.633              
C              -7.493              -0.705              13.351              
C              -8.637              -1.168              12.725              
C              -7.602              -0.186              14.631              
C              -9.853              -1.14               13.374              
C              -8.82               -0.15               15.279              
C              -9.944              -0.623              14.652              
H              -4.604              -1.63               14.569              
H              -6.115              -2.835              12.513              
H              -5.567              -0.076              13.101              
H              -6.329              -0.42               11.698              
H              -8.584              -1.527              11.796              
H              -6.784              0.167               15.091              
H              -10.676             -1.498              12.909              
H              -8.874              0.23                16.221              
H              -10.834             -0.598              15.114              
N              -3.428              -1.468              11.423              
C              -2.532              -1.443              10.278              
C              -1.998              -2.828              9.934               
O              -1.896              -3.185              8.767               
C              -1.412              -0.436              10.493              
C              -1.872              0.979               10.214              
H              -3.238              -0.996              12.317              
H              -3.071              -1.13               9.482               
H              -1.112              -0.491              11.438              
H              -0.665              -0.655              9.875               
O              -2.68               1.204               9.309               
N              -1.385              1.933               10.992              
H              -0.737              1.696               11.721              
H              -1.657              2.884               10.858              
N              -1.685              -3.615              10.954              
C              -1.268              -4.996              10.758              
C              -2.362              -5.802              10.06               
O              -2.083              -6.566              9.138               
C              -0.894              -5.617              12.105              
O              0.307               -4.994              12.566              
C              -0.696              -7.122              12.002              
H              -1.762              -3.168              11.89               
H              -0.449              -5.005              10.172              
H              -1.632              -5.422              12.777              
H              0.283               -7.336              11.98               
H              -1.113              -7.575              12.793              
H              -1.125              -7.465              11.163              
H              0.105               -4.09               12.959              
N              -3.605              -5.628              10.493              
C              -4.731              -6.296              9.858               
C              -4.788              -5.989              8.359               
O              -4.941              -6.892              7.532               
C              -6.034              -5.873              10.536              
C              -7.267              -6.522              9.948               
S              -8.782              -5.927              10.71               
C              -8.933              -4.327              9.926               
H              -3.7                -4.989              11.305              
H              -4.61               -7.291              9.963               
H              -5.982              -6.108              11.516              
H              -6.13               -4.871              10.46               
H              -7.277              -6.35               8.937               
H              -7.184              -7.539              10.051              
H              -9.733              -3.847              10.29               
H              -8.111              -3.784              10.107              
H              -9.04               -4.445              8.937               
N              -4.674              -4.717              7.995               
C              -4.727              -4.344              6.585               
C              -3.534              -4.906              5.818               
O              -3.698              -5.494              4.752               
C              -4.821              -2.824              6.423               
C              -6.082              -2.242              6.985               
C              -7.317              -2.746              6.61                
C              -6.039              -1.197              7.89                
C              -8.484              -2.222              7.125               
C              -7.206              -0.673              8.411               
C              -8.429              -1.188              8.026               
H              -4.55               -4.044              8.765               
H              -5.55               -4.776              6.197               
H              -4.056              -2.423              6.901               
H              -4.792              -2.622              5.457               
H              -7.365              -3.502              5.957               
H              -5.156              -0.819              8.17                
H              -9.372              -2.604              6.833               
H              -7.159              0.093               9.077               
H              -9.276              -0.806              8.405               
N              -2.341              -4.753              6.371               
C              -1.131              -5.22               5.716               
C              -1.165              -6.735              5.488               
O              -0.758              -7.216              4.436               
C              0.108               -4.827              6.541               
O              0.191               -3.398              6.607               
C              1.37                -5.383              5.918               
H              -2.346              -4.279              7.297               
H              -1.056              -4.771              4.815               
H              -0.001              -5.184              7.488               
H              2.102               -5.426              6.604               
H              1.201               -6.307              5.565               
H              1.668               -4.795              5.161               
H              -0.422              -3.045              7.322               
N              -1.666              -7.487              6.465               
C              -1.793              -8.931              6.3                 
C              -2.612              -9.253              5.058               
O              -2.274              -10.148             4.28                
C              -2.473              -9.572              7.511               
C              -1.598              -9.587              8.742               
H              -1.945              -6.977              7.316               
H              -0.87               -9.295              6.147               
H              -3.303              -9.055              7.714               
H              -2.711              -10.513             7.275               
O              -0.385              -9.4                8.669               
N              -2.218              -9.829              9.889               
H              -3.203              -9.994              9.909               
H              -1.696              -9.848              10.746              
N              -3.708              -8.526              4.883               
C              -4.587              -8.747              3.75                
C              -3.841              -8.47               2.445               
O              -3.981              -9.207              1.467               
C              -5.824              -7.852              3.877               
S              -7.111              -8.181              2.644               
H              -3.875              -7.805              5.61                
H              -4.869              -9.71               3.746               
H              -6.216              -7.992              4.783               
H              -5.531              -6.903              3.777               
H              -7.154              -7.419              1.999               
N              -3.028              -7.42               2.441               
C              -2.289              -7.011              1.25                
C              -1.071              -7.89               0.955               
O              -0.536              -7.855              -0.151              
C              -1.832              -5.552              1.374               
C              -2.936              -4.563              1.685               
C              -4.247              -4.797              1.286               
C              -2.662              -3.394              2.38                
C              -5.249              -3.896              1.573               
C              -3.659              -2.487              2.672               
C              -4.95               -2.742              2.262               
O              -5.952              -1.851              2.558               
H              -2.963              -6.918              3.352               
H              -2.916              -7.071              0.452               
H              -1.151              -5.5                2.105               
H              -1.409              -5.284              0.508               
H              -4.465              -5.636              0.78                
H              -1.724              -3.208              2.675               
H              -6.193              -4.08               1.283               
H              -3.448              -1.649              3.178               
H              -5.548              -0.973              2.808               
N              -0.627              -8.657              1.947               
C              0.465               -9.602              1.77                
C              -0.059              -10.933             1.226               
O              0.516               -11.505             0.302               
C              1.187               -9.858              3.112               
C              1.974               -8.626              3.561               
C              2.116               -11.048             3.009               
C              2.381               -8.698              5.017               
H              -1.126              -8.522              2.853               
H              1.061               -9.22               1.059               
H              0.492               -10.05              3.8                 
H              2.789               -8.549              2.999               
H              1.402               -7.824              3.427               
H              2.532               -11.23              3.9                 
H              1.602               -11.854             2.715               
H              2.837               -10.857             2.343               
H              2.957               -9.501              5.16                
H              2.89                -7.873              5.26                
H              1.563               -8.766              5.586               
N              -1.154              -11.425             1.801               
C              -1.665              -12.747             1.442               
C              -2.419              -12.76              0.108               
O              -2.417              -13.768             -0.6                
C              -2.571              -13.314             2.551               
C              -3.096              -14.681             2.18                
C              -2.298              -15.807             2.308               
C              -4.373              -14.84              1.66                
C              -2.756              -17.057             1.932               
C              -4.843              -16.083             1.285               
C              -4.031              -17.19              1.422               
O              -4.486              -18.437             1.043               
H              -1.598              -10.809             2.502               
H              -0.876              -13.38              1.359               
H              -2.036              -13.394             3.374               
H              -3.335              -12.704             2.665               
H              -1.37               -15.716             2.68                
H              -4.963              -14.038             1.557               
H              -2.165              -17.861             2.031               
H              -5.769              -16.182             0.915               
H              -4.001              -19.134             1.567               
N              -3.07               -11.659             -0.223              
C              -3.928              -11.573             -1.399              
C              -3.346              -10.666             -2.472              
O              -2.713              -9.682              -2.188              
C              -5.306              -11.053             -0.999              
C              -5.957              -11.901             0.075               
H              -2.919              -10.853             0.428               
H              -3.984              -12.502             -1.795              
H              -5.205              -10.124             -0.653              
H              -5.891              -11.057             -1.805              
O              -6.504              -12.949             -0.197              
N              -5.879              -11.434             1.305               
H              -5.418              -10.566             1.495               
H              -6.285              -11.949             2.067               
N              -3.619              -11.026             -3.72               
C              -3.128              -10.285             -4.87               
C              -3.794              -8.911              -4.98               
O              -5.002              -8.781              -4.769              
C              -3.414              -11.1               -6.131              
C              -2.879              -10.515             -7.419              
C              -3.194              -11.438             -8.588              
C              -2.656              -10.886             -9.895              
N              -2.955              -11.779             -11.048             
H              -4.213              -11.882             -3.802              
H              -2.132              -10.149             -4.775              
H              -3.013              -12.013             -6.007              
H              -4.411              -11.198             -6.217              
H              -3.308              -9.631              -7.584              
H              -1.891              -10.41              -7.35               
H              -2.774              -12.324             -8.419              
H              -4.182              -11.534             -8.665              
H              -3.068              -9.984              -10.063             
H              -1.66               -10.773             -9.817              
H              -3.61               -12.478             -10.764             
H              -3.344              -11.239             -11.794             
H              -2.111              -12.216             -11.356             
N              -3.007              -7.88               -5.333              
C              -3.589              -6.555              -5.549              
C              -4.796              -6.627              -6.472              
O              -4.766              -7.33               -7.486              
C              -2.437              -5.777              -6.188              
C              -1.218              -6.388              -5.578              
C              -1.538              -7.859              -5.479              
H              -3.835              -6.126              -4.67               
H              -2.439              -5.895              -7.181              
H              -2.5                -4.805              -5.967              
H              -0.417              -6.236              -6.16               
H              -1.045              -6                  -4.671              
H              -1.261              -8.349              -6.305              
H              -1.1                -8.275              -4.681              
N              -5.855              -5.915              -6.106              
C              -7.069              -5.883              -6.902              
C              -8.07               -6.999              -6.636              
O              -9.182              -6.959              -7.158              
H              -5.739              -5.391              -5.214              
H              -7.539              -4.978              -6.761              
H              -6.816              -5.897              -7.9                
N              -7.693              -8                  -5.844              
C              -8.635              -9.049              -5.461              
C              -9.781              -8.427              -4.674              
O              -9.603              -7.403              -4.013              
C              -7.958              -10.109             -4.588              
C              -7.249              -11.182             -5.391              
O              -7.195              -11.087             -6.637              
O              -6.73               -12.129             -4.757              
H              -6.709              -7.97               -5.535              
H              -9.024              -9.421              -6.304              
H              -7.291              -9.649              -4.009              
H              -8.659              -10.539             -4.028              
N              -10.945             -9.063              -4.732              
C              -12.128             -8.585              -4.02               
C              -11.834             -8.237              -2.565              
O              -12.192             -7.16               -2.086              
C              -13.22              -9.657              -4.029              
C              -13.644             -10.068             -5.425              
O              -13.501             -9.261              -6.366              
O              -14.133             -11.209             -5.572              
H              -10.943             -9.922              -5.321              
H              -12.424             -7.73               -4.475              
H              -12.868             -10.458             -3.553              
H              -14.012             -9.293              -3.548              
N              -11.184             -9.154              -1.857              
C              -10.939             -8.96               -0.433              
C              -10.392             -10.259             0.225               
C              -10.385             -10.15              1.752               
C              -8.998              -10.591             -0.28               
C              -11.762             -10.107             2.381               
H              -10.879             -9.986              -2.386              
H              -11.822             -8.712              -0.023              
H              -11.001             -11.005             -0.032              
H              -9.884              -10.933             2.122               
H              -9.892              -9.315              2.003               
H              -8.699              -11.461             0.109               
H              -9.011              -10.66              -1.277              
H              -8.362              -9.871              -0.006              
H              -12.258             -10.943             2.149               
H              -11.67              -10.036             3.373               
H              -12.26              -9.314              2.033               
H              -10.2654            -8.10544            -0.258497           
H              -1.17293            4.12348             19.65               
