284
1.xyz
C              29.772              105.597             10.96               
O              30.555              105.819             11.88               
N              29.689              104.403             10.392              
C              30.364              103.295             11.043              
C              31.882              103.264             10.791              
O              32.591              102.476             11.417              
C              29.707              101.977             10.638              
C              29.84               100.928             11.736              
C              28.674              99.973              11.783              
O              28.714              98.916              11.115              
O              27.7                100.295             12.498              
H              29.155              104.342             9.533               
H              30.201              103.334             12.047              
H              28.758              102.143             10.502              
H              30.167              101.64              9.85                
H              30.654              100.403             11.559              
H              29.883              101.395             12.601              
N              32.397              104.138             9.93                
C              33.842              104.198             9.735               
C              34.503              105.157             10.708              
O              35.713              105.111             10.911              
C              34.174              104.623             8.312               
O              33.927              106.009             8.131               
H              31.722              104.734             9.442               
H              34.217              103.275             9.903               
H              35.136              104.442             8.135               
H              33.604              104.11              7.679               
H              33.014              106.231             8.47                
N              33.695              106.039             11.288              
C              34.187              107.101             12.152              
C              34.654              106.576             13.503              
O              33.974              105.766             14.123              
C              33.09               108.139             12.382              
O              32.595              108.642             11.158              
H              32.682              105.903             11.07               
H              34.981              107.533             11.697              
H              32.343              107.71              12.884              
H              33.469              108.893             12.914              
H              32.187              107.897             10.63               
N              35.808              107.045             13.958              
C              36.217              106.782             15.33               
C              35.605              107.857             16.217              
O              35.778              109.037             15.959              
C              37.737              106.767             15.459              
C              38.264              106.683             16.878              
C              39.762              106.392             16.89               
N              40.379              106.746             18.163              
C              40.366              105.984             19.251              
N              39.758              104.792             19.239              
N              40.964              106.419             20.358              
H              36.364              107.588             13.283              
H              35.864              105.894             15.612              
H              38.086              105.977             14.952              
H              38.094              107.606             15.046              
H              38.115              107.549             17.343              
H              37.805              105.946             17.363              
H              39.886              105.418             16.72               
H              40.182              106.923             16.158              
H              40.852              107.638             18.223              
H              39.326              104.455             18.408              
H              39.741              104.239             20.074              
H              41.434              107.302             20.359              
H              40.945              105.862             21.188              
N              34.887              107.438             17.252              
C              34.314              108.36              18.221              
C              34.597              107.804             19.605              
O              34.379              106.613             19.82               
C              32.803              108.505             18.023              
C              32.18               109.587             18.869              
C              31.891              110.87              18.477              
C              31.768              109.485             20.243              
N              31.333              111.568             19.518              
C              31.254              110.749             20.618              
C              31.797              108.459             21.194              
C              30.748              111.006             21.898              
C              31.306              108.729             22.484              
C              30.787              109.987             22.815              
H              34.771              106.403             17.309              
H              34.793              109.228             18.139              
H              32.621              108.735             17.075              
H              32.36               107.651             18.269              
H              32.063              111.24              17.566              
H              31.031              112.521             19.486              
H              32.151              107.559             20.978              
H              30.374              111.911             22.119              
H              31.335              108.005             23.164              
H              30.44               110.136             23.741              
N              35.074              108.65              20.521              
C              35.343              108.223             21.895              
C              34.732              109.192             22.896              
O              34.36               110.307             22.547              
C              36.863              108.091             22.186              
C              37.576              109.431             21.985              
C              37.486              107.034             21.283              
C              39.063              109.434             22.419              
H              35.234              109.616             20.18               
H              34.867              107.346             22.013              
H              36.965              107.824             23.139              
H              37.535              109.678             21.02               
H              37.102              110.129             22.517              
H              38.453              106.931             21.51               
H              37.018              106.163             21.418              
H              37.396              107.316             20.33               
H              39.547              108.753             21.883              
H              39.436              110.339             22.252              
H              39.108              109.212             23.386              
N              34.636              108.753             24.147              
C              33.989              109.528             25.202              
C              34.459              110.978             25.26               
O              33.639              111.889             25.377              
C              34.218              108.86              26.561              
S              33.343              107.271             26.739              
H              35.06               107.813             24.309              
H              32.989              109.53              25.023              
H              35.189              108.689             26.667              
H              33.889              109.472             27.27               
H              33.398              106.771             25.878              
N              35.76               111.203             25.143              
C              36.27               112.569             25.253              
C              35.739              113.509             24.165              
O              35.784              114.733             24.331              
C              37.794              112.571             25.237              
C              38.416              112.275             26.605              
S              40.201              112.493             26.566              
C              40.413              113.029             24.863              
H              36.347              110.38              24.978              
H              35.979              112.942             26.151              
H              38.12               111.876             24.589              
H              38.122              113.472             24.933              
H              37.987              112.891             27.292              
H              38.169              111.324             26.871              
H              41.118              112.472             24.425              
H              39.549              112.922             24.371              
H              40.689              113.99              24.849              
N              35.237              112.945             23.063              
C              34.618              113.752             22.008              
C              33.228              114.278             22.381              
O              32.653              115.089             21.655              
C              34.478              112.946             20.709              
C              35.792              112.35              20.228              
H              35.322              111.915             23.021              
H              35.211              114.563             21.868              
H              33.832              112.203             20.87               
H              34.126              113.554             20                  
O              35.8                111.294             19.574              
N              36.9                113.013             20.531              
H              36.837              113.864             21.061              
H              37.789              112.672             20.237              
N              32.68               113.773             23.484              
C              31.352              114.135             23.959              
C              31.328              115.561             24.517              
O              32.137              115.903             25.378              
C              30.92               113.143             25.051              
C              29.435              113.165             25.338              
H              33.295              113.084             23.987              
H              30.734              114.124             23.163              
H              31.176              112.223             24.754              
H              31.413              113.372             25.89               
O              28.697              114.015             24.847              
N              28.987              112.219             26.169              
H              29.622              111.558             26.563              
H              28.014              112.176             26.395              
N              30.39               116.383             24.058              
C              30.283              117.742             24.592              
C              29.628              117.752             25.963              
O              29.704              118.75              26.681              
C              29.504              118.637             23.633              
O              30.26               118.84              22.447              
H              29.776              116                 23.331              
H              31.217              118.11              24.689              
H              28.65               118.194             23.399              
H              29.344              119.513             24.067              
H              30.898              118.081             22.327              
N              28.989              116.64              26.322              
C              28.31               116.508             27.613              
C              29.322              116.008             28.639              
O              29.649              114.833             28.652              
C              27.116              115.552             27.475              
C              26.428              115.24              28.792              
O              26.769              115.82              29.851              
O              25.511              114.389             28.749              
H              29.013              115.878             25.612              
H              28.032              117.422             27.896              
H              26.455              115.977             26.861              
H              27.451              114.701             27.079              
N              29.823              116.899             29.49               
C              30.975              116.551             30.326              
C              30.617              115.767             31.606              
O              31.489              115.453             32.428              
C              31.768              117.817             30.655              
C              32.341              118.506             29.404              
C              33.119              117.53              28.515              
C              33.638              118.2               27.238              
N              34.346              117.231             26.337              
H              29.353              117.811             29.509              
H              31.617              115.982             29.777              
H              31.165              118.459             31.108              
H              32.527              117.57              31.244              
H              31.585              118.891             28.875              
H              32.955              119.239             29.693              
H              33.898              117.183             29.027              
H              32.516              116.783             28.255              
H              32.862              118.598             26.744              
H              34.273              118.933             27.493              
H              33.862              117.183             25.466              
H              35.28               117.548             26.189              
H              34.357              116.332             26.77               
N              29.348              115.408             31.752              
C              28.976              114.377             32.723              
C              29.521              113.008             32.283              
O              29.793              112.137             33.109              
C              27.457              114.281             32.882              
C              26.764              115.544             33.369              
C              25.241              115.354             33.341              
N              24.771              115.026             31.995              
C              23.537              114.614             31.712              
N              22.641              114.481             32.681              
N              23.201              114.329             30.459              
H              28.674              115.897             31.148              
H              29.378              114.607             33.612              
H              27.066              114.038             31.991              
H              27.258              113.548             33.537              
H              27.03               115.734             34.302              
H              26.986              116.3               32.771              
H              25.016              114.613             33.961              
H              24.825              116.203             33.641              
H              25.423              115.118             31.234              
H              22.865              114.704             33.626              
H              21.715              114.15              32.459              
H              23.878              114.446             29.728              
H              22.284              114.003             30.245              
N              29.659              112.827             30.973              
C              29.931              111.511             30.391              
C              31.011              111.565             29.312              
O              30.823              111.028             28.216              
C              28.647              110.924             29.791              
C              27.531              110.765             30.781              
C              27.6                109.8               31.782              
C              26.403              111.568             30.71               
C              26.565              109.648             32.695              
C              25.363              111.419             31.628              
C              25.449              110.462             32.622              
H              29.558              113.691             30.401              
H              30.292              110.931             31.135              
H              28.342              111.537             29.078              
H              28.867              110.031             29.428              
H              28.4                109.211             31.847              
H              26.331              112.263             29.995              
H              26.635              108.939             33.409              
H              24.548              112.017             31.556              
H              24.71               110.356             33.287              
N              32.135              112.202             29.622              
C              33.118              112.518             28.593              
C              34.524              112.006             28.888              
O              35.499              112.583             28.439              
C              33.151              114.032             28.355              
H              32.246              112.444             30.619              
H              32.807              112.108             27.711              
H              32.354              114.298             27.817              
H              33.135              114.503             29.234              
H              33.985              114.269             27.861              
N              34.627              110.921             29.645              
C              35.848              110.128             29.596              
C              35.446              108.697             29.893              
O              34.339              108.448             30.382              
C              36.948              110.67              30.54               
C              36.646              110.468             32.014              
O              36.618              109.308             32.474              
O              36.496              111.477             32.735              
H              33.818              110.704             30.232              
H              36.18               110.153             28.662              
H              37.795              110.196             30.316              
H              37.044              111.645             30.36               
N              36.316              107.751             29.551              
C              35.918              106.351             29.59               
C              36.958              105.491             28.868              
S              37.038              105.833             27.095              
H              37.246              108.082             29.271              
H              35.045              106.256             29.074              
H              37.846              105.681             29.263              
H              36.712              104.538             28.992              
H              36.536              106.674             26.895              
H              29.1459             106.377             10.5929             
H              35.7536             105.968             30.6018             
