200
1.xyz
N              33.426              29.787              41.006              
C              33.388              29.279              42.398              
C              32.149              29.792              43.139              
O              32.258              30.515              44.132              
C              34.693              29.611              43.136              
O              35.783              29.446              42.25               
C              34.951              28.668              44.312              
H              34.362              29.742              40.663              
H              33.345              28.276              42.362              
H              34.66               30.587              43.434              
H              35.672              28.017              44.069              
H              35.239              29.198              45.111              
H              34.112              28.167              44.532              
H              32.832              29.226              40.432              
H              33.109              30.733              40.99               
H              35.511              28.904              41.444              
N              30.94               29.436              42.671              
C              29.667              29.787              43.341              
C              29.52               29.091              44.701              
O              28.881              29.622              45.608              
C              28.483              29.444              42.41               
C              27.146              30.02               42.909              
C              25.963              29.607              42.023              
N              25.927              30.372              40.764              
C              25.084              30.199              39.761              
N              24.183              29.256              39.762              
N              25.13               30.991              38.727              
H              30.973              28.884              41.784              
H              29.649              30.785              43.486              
H              28.667              29.829              41.52               
H              28.395              28.462              42.37               
H              26.971              29.689              43.833              
H              27.198              31.016              42.909              
H              26.058              28.641              41.816              
H              25.127              29.775              42.532              
H              26.628              31.11               40.662              
H              24.093              28.637              40.552              
H              23.566              29.134              38.978              
H              25.791              31.75               38.691              
H              24.506              30.857              37.949              
N              30.101              27.895              44.843              
C              30.056              27.103              46.079              
C              28.887              26.106              46.158              
O              28.759              25.382              47.146              
H              30.602              27.563              43.98               
H              30.932              26.59               46.178              
H              30.002              27.735              46.878              
N              28.045              26.043              45.117              
C              26.838              25.185              45.034              
C              26.693              24.475              43.664              
O              25.705              23.784              43.399              
C              25.6                26.023              45.419              
O              24.478              25.209              45.708              
C              25.199              27.041              44.349              
H              28.321              26.684              44.319              
H              26.908              24.473              45.747              
H              25.83               26.572              46.261              
H              24.239              27.297              44.472              
H              25.773              27.857              44.43               
H              25.321              26.639              43.44               
H              24.677              24.583              46.473              
N              27.709              24.602              42.797              
C              27.739              24.055              41.421              
C              29.125              23.518              41.064              
O              29.268              22.424              40.519              
C              27.36               25.149              40.4                
O              26.107              25.721              40.712              
C              27.269              24.62               38.966              
H              28.526              25.15               43.192              
H              27.08               23.296              41.374              
H              28.075              25.886              40.436              
H              26.323              24.681              38.646              
H              27.857              25.167              38.369              
H              27.567              23.665              38.941              
H              25.72               25.306              41.546              
N              30.164              24.266              41.439              
C              31.586              24.017              41.176              
C              32.377              23.785              42.479              
O              33.597              23.947              42.525              
C              32.141              25.181              40.335              
C              31.846              26.57               40.922              
O              31.974              27.573              40.183              
O              31.464              26.697              42.11               
H              29.853              25.137              41.994              
H              31.647              23.163              40.645              
H              33.128              25.071              40.272              
H              31.731              25.13               39.43               
N              31.674              23.366              43.54               
C              32.277              22.896              44.792              
C              32.207              21.368              44.942              
O              32.827              20.824              45.853              
C              31.601              23.595              45.985              
C              32.589              24.026              47.063              
H              30.632              23.404              43.395              
H              33.256              23.141              44.761              
H              31.129              24.404              45.646              
H              30.948              22.96               46.389              
O              32.565              25.149              47.548              
N              33.505              23.172              47.462              
H              33.524              22.254              47.031              
H              34.163              23.407              48.162              
N              31.483              20.669              44.058              
C              31.312              19.209              44.066              
C              32.56               18.434              43.575              
O              32.456              17.301              43.111              
C              30.015              18.823              43.307              
C              28.721              19.086              44.111              
C              28.098              20.445              43.788              
C              27.67               18.01               43.827              
H              31.025              21.28               43.322              
H              31.118              18.913              45.016              
H              29.972              19.368              42.491              
H              30.054              17.861              43.115              
H              28.94               19.045              45.091              
H              27.871              20.482              42.816              
H              27.268              20.566              44.331              
H              28.751              21.169              44.008              
H              28.034              17.116              44.086              
H              26.846              18.204              44.358              
H              27.449              18.013              42.852              
N              33.759              19.011              43.697              
C              35.034              18.368              43.338              
C              35.291              17.044              44.111              
O              35.587              16.031              43.467              
C              36.223              19.358              43.48               
C              35.917              20.844              43.155              
C              37.403              18.878              42.616              
C              35.307              21.128              41.775              
H              33.717              19.992              44.082              
H              34.959              18.112              42.365              
H              36.541              19.318              44.442              
H              35.291              21.194              43.859              
H              36.778              21.359              43.231              
H              38.202              19.437              42.817              
H              37.595              17.924              42.829              
H              37.16               18.968              41.655              
H              34.442              20.641              41.701              
H              35.158              22.108              41.686              
H              35.94               20.812              41.074              
N              35.147              16.981              45.46               
C              35.406              15.753              46.224              
C              34.309              14.69               46.046              
O              34.601              13.52               45.805              
C              35.516              16.195              47.686              
C              34.686              17.471              47.76               
C              34.867              18.087              46.377              
H              36.312              15.367              45.982              
H              35.14               15.503              48.301              
H              36.464              16.385              47.935              
H              33.735              17.252              47.928              
H              35.042              18.07               48.464              
H              34.031              18.584              46.097              
H              35.63               18.753              46.381              
N              33.036              15.094              46.116              
C              31.863              14.228              45.861              
C              31.912              13.6                44.469              
O              31.637              12.403              44.354              
C              30.514              14.947              46.131              
C              30.59               16.454              45.908              
C              29.345              14.433              45.277              
H              32.929              16.111              46.375              
H              31.879              13.485              46.541              
H              30.287              14.805              47.097              
H              30.486              16.652              44.934              
H              29.859              16.903              46.42               
H              31.476              16.793              46.224              
H              29.493              14.706              44.329              
H              29.309              13.438              45.344              
H              28.496              14.83               45.619              
N              32.321              14.344              43.427              
C              32.522              13.749              42.103              
C              33.516              12.602              42.178              
O              33.174              11.512              41.745              
C              32.953              14.761              41.029              
C              31.87               15.02               40                  
C              31.533              14.004              39.083              
C              31.196              16.256              39.96               
C              30.533              14.226              38.119              
C              30.196              16.483              38.992              
C              29.867              15.469              38.068              
O              28.912              15.679              37.121              
H              32.475              15.341              43.64               
H              31.64               13.384              41.787              
H              33.168              15.617              41.478              
H              33.747              14.397              40.561              
H              32                  13.133              39.115              
H              31.421              16.963              40.608              
H              30.292              13.508              37.472              
H              29.722              17.356              38.959              
H              28.767              14.837              36.599              
N              34.691              12.787              42.787              
C              35.671              11.71               42.926              
C              36.89               12.215              43.696              
S              38.207              10.981              43.832              
H              34.844              13.75               43.148              
H              36.01               11.467              41.999              
H              37.253              13.007              43.221              
H              36.599              12.462              44.613              
H              35.2631             10.7879             43.3842             
H              38.7672             10.9564             42.6501             
