314
2.xyz
C              7.419               -19.822             -1.762              
O              7.058               -18.646             -1.878              
N              6.916               -20.645             -0.845              
C              5.916               -20.194             0.103               
C              6.381               -20.502             1.519               
O              6.875               -21.604             1.787               
C              4.557               -20.866             -0.156              
C              4.02                -20.689             -1.578              
C              3.603               -19.262             -1.87               
O              3.385               -18.5               -0.907              
O              3.496               -18.901             -3.06               
H              7.295               -21.61              -0.871              
H              5.772               -19.206             0.006               
H              4.667               -21.832             0.001               
H              3.903               -20.464             0.46                
H              4.737               -20.927             -2.205              
H              3.228               -21.26              -1.678              
N              6.245               -19.549             2.438               
C              6.569               -19.828             3.843               
C              5.699               -20.947             4.395               
O              4.591               -21.194             3.915               
C              6.287               -18.494             4.547               
C              5.427               -17.717             3.594               
C              5.85                -18.149             2.223               
H              7.547               -20.049             3.944               
H              5.807               -18.648             5.417               
H              7.144               -18.005             4.735               
H              4.455               -17.922             3.755               
H              5.57                -16.729             3.723               
H              5.097               -18.093             1.571               
H              6.624               -17.613             1.89                
N              6.219               -21.627             5.422               
C              5.557               -22.824             5.932               
C              4.175               -22.52              6.497               
O              3.312               -23.404             6.526               
C              6.431               -23.496             6.993               
C              6.729               -22.629             8.2                 
C              7.576               -23.345             9.237               
O              7.865               -24.546             9.05                
O              7.953               -22.704             10.241              
H              7.095               -21.243             5.804               
H              5.473               -23.506             5.189               
H              5.952               -24.298             7.31                
H              7.29                -23.727             6.569               
H              7.233               -21.841             7.9                 
H              5.879               -22.388             8.629               
N              3.944               -21.284             6.947               
C              2.631               -20.927             7.475               
C              1.564               -20.972             6.387               
O              0.383               -21.18              6.685               
C              2.688               -19.54              8.119               
C              2.697               -18.388             7.122               
C              3.562               -17.227             7.569               
O              4.549               -17.468             8.293               
O              3.256               -16.074             7.196               
H              4.74                -20.637             6.89                
H              2.38                -21.563             8.217               
H              1.888               -19.438             8.683               
H              3.519               -19.486             8.643               
H              3.061               -18.722             6.272               
H              1.776               -18.055             7.028               
N              1.962               -20.788             5.124               
C              1.022               -20.843             4.011               
C              0.603               -22.266             3.672               
O              -0.38               -22.452             2.947               
C              1.639               -20.196             2.767               
C              1.566               -18.685             2.789               
O              1.78                -18.026             1.775               
N              1.256               -18.127             3.953               
H              2.977               -20.607             5.012               
H              0.187               -20.35              4.302               
H              2.597               -20.47              2.715               
H              1.147               -20.529             1.965               
H              1.092               -18.702             4.756               
H              1.187               -17.132             4.031               
N              1.317               -23.267             4.175               
C              1.177               -24.631             3.687               
C              0.159               -25.413             4.504               
O              0.181               -25.397             5.738               
C              2.529               -25.349             3.711               
C              3.428               -25.18              2.477               
C              3.669               -23.718             2.136               
C              4.752               -25.891             2.665               
H              1.973               -22.994             4.935               
H              0.86                -24.599             2.73                
H              3.043               -25.009             4.498               
H              2.356               -26.326             3.818               
H              2.99                -25.638             1.695               
H              4.114               -23.263             2.908               
H              4.257               -23.655             1.329               
H              2.795               -23.27              1.946               
H              4.593               -26.869             2.811               
H              5.321               -25.768             1.85                
H              5.229               -25.512             3.46                
N              -0.742              -26.088             3.798               
C              -1.679              -27.038             4.38                
C              -1.564              -28.372             3.659               
O              -2.563              -28.998             3.292               
C              -3.11               -26.507             4.332               
C              -4.063              -27.317             5.194               
O              -3.588              -28.181             5.961               
O              -5.287              -27.094             5.099               
H              -0.72               -25.874             2.767               
H              -1.398              -27.191             5.33                
H              -3.103              -25.57              4.66                
H              -3.422              -26.544             3.391               
N              -0.331              -28.811             3.421               
C              -0.045              -30.079             2.753               
C              1.004               -30.831             3.56                
O              2.15                -30.992             3.121               
C              0.421               -29.847             1.316               
S              1.695               -28.576             1.146               
H              0.425               -28.165             3.756               
H              -0.881              -30.624             2.741               
H              0.787               -30.707             0.965               
H              -0.371              -29.571             0.774               
H              1.315               -27.687             1.403               
N              0.645               -31.304             4.757               
C              1.64                -32                 5.588               
C              2.156               -33.278             4.955               
O              3.342               -33.602             5.091               
C              0.87                -32.276             6.887               
C              -0.566              -32.304             6.473               
C              -0.687              -31.277             5.388               
H              2.408               -31.373             5.814               
H              1.148               -33.155             7.281               
H              1.037               -31.55              7.557               
H              -0.816              -33.217             6.135               
H              -1.16               -32.077             7.252               
H              -1.393              -31.523             4.725               
H              -0.88               -30.368             5.759               
N              1.286               -34.016             4.263               
C              1.709               -35.252             3.614               
C              2.789               -34.988             2.573               
O              3.749               -35.758             2.455               
C              0.502               -35.942             2.981               
C              -0.557              -36.312             4.001               
O              -0.371              -37.317             4.718               
O              -1.568              -35.584             4.098               
H              0.324               -33.646             4.231               
H              2.12                -35.837             4.325               
H              0.103               -35.319             2.319               
H              0.819               -36.77              2.535               
N              2.654               -33.899             1.812               
C              3.65                -33.578             0.796               
C              4.938               -33.05              1.418               
O              6.03                -33.31              0.899               
C              3.082               -32.565             -0.201              
C              1.968               -33.057             -1.128              
C              1.63                -31.995             -2.164              
C              2.37                -34.36              -1.803              
H              1.817               -33.331             2.001               
H              3.867               -34.419             0.282               
H              2.715               -31.796             0.321               
H              3.833               -32.251             -0.779              
H              1.156               -33.258             -0.581              
H              2.442               -31.792             -2.712              
H              0.901               -32.331             -2.762              
H              1.324               -31.162             -1.702              
H              2.544               -35.058             -1.107              
H              1.632               -34.667             -2.405              
H              3.2                 -34.215             -2.343              
N              4.832               -32.305             2.521               
C              6.025               -31.824             3.215               
C              6.845               -32.999             3.73                
O              8.062               -33.072             3.523               
C              5.639               -30.877             4.365               
C              5.134               -29.538             3.831               
C              6.828               -30.659             5.288               
C              4.785               -28.56              4.932               
H              3.868               -32.107             2.827               
H              6.585               -31.363             2.524               
H              4.899               -31.304             4.879               
H              5.84                -29.14              3.255               
H              4.32                -29.706             3.282               
H              6.553               -30.084             6.057               
H              7.15                -31.54              5.631               
H              7.564               -30.21              4.784               
H              5.597               -28.382             5.486               
H              4.462               -27.706             4.526               
H              4.067               -28.95              5.506               
N              6.185               -33.93              4.423               
C              6.89                -35.065             5.008               
C              7.517               -35.942             3.934               
O              8.64                -36.432             4.101               
C              5.936               -35.883             5.877               
H              5.168               -33.778             4.503               
H              7.623               -34.717             5.608               
H              6.458               -36.557             6.398               
H              5.455               -35.274             6.505               
H              5.275               -36.351             5.293               
N              6.804               -36.154             2.823               
C              7.357               -36.939             1.724               
C              8.653               -36.328             1.212               
O              9.625               -37.046             0.952               
C              6.34                -37.049             0.589               
C              5.206               -38.024             0.849               
C              4.151               -37.982             -0.24               
O              3.008               -38.416             0.018               
O              4.465               -37.509             -1.353              
H              5.866               -35.729             2.816               
H              7.53                -37.882             2.036               
H              5.942               -36.156             0.456               
H              6.82                -37.357             -0.216              
H              5.577               -38.932             0.868               
H              4.771               -37.777             1.693               
N              8.687               -35.003             1.066               
C              9.9                 -34.346             0.593               
C              11.041              -34.507             1.589               
O              12.16               -34.878             1.214               
C              9.638               -32.865             0.336               
C              10.892              -32.053             0.237               
C              11.691              -32.129             -0.891              
C              11.287              -31.231             1.28                
C              12.854              -31.393             -0.983              
C              12.449              -30.491             1.193               
C              13.234              -30.574             0.062               
H              7.818               -34.509             1.307               
H              10.181              -34.82              -0.251              
H              9.153               -32.787             -0.52               
H              9.104               -32.517             1.09                
H              11.424              -32.722             -1.649              
H              10.721              -31.174             2.105               
H              13.422              -31.458             -1.814              
H              12.721              -29.889             1.964               
H              14.081              -30.041             -0.006              
N              10.779              -34.209             2.863               
C              11.829              -34.27              3.874               
C              12.362              -35.689             4.021               
O              13.576              -35.905             4.101               
C              11.299              -33.746             5.208               
C              10.999              -32.246             5.228               
C              10.303              -31.851             6.513               
C              12.28               -31.45              5.052               
H              9.803               -33.942             3.06                
H              12.587              -33.674             3.586               
H              10.454              -34.22              5.409               
H              11.983              -33.922             5.9                 
H              10.413              -32.024             4.447               
H              10.888              -32.07              7.296               
H              10.115              -30.867             6.507               
H              9.439               -32.351             6.597               
H              12.705              -31.685             4.176               
H              12.072              -30.471             5.067               
H              12.915              -31.665             5.796               
N              11.463              -36.674             4.057               
C              11.896              -38.066             4.037               
C              12.698              -38.374             2.781               
O              13.546              -39.274             2.787               
C              10.683              -38.996             4.129               
C              9.938               -38.963             5.461               
C              8.616               -39.71              5.4                 
H              10.481              -36.374             4.098               
H              12.498              -38.216             4.831               
H              10.031              -38.747             3.404               
H              10.99               -39.942             3.97                
H              10.512              -39.387             6.158               
H              9.757               -38.012             5.702               
O              8.148               -40.075             4.322               
N              8.009               -39.942             6.559               
H              7.117               -40.423             6.594               
H              8.458               -39.627             7.419               
N              12.461              -37.629             1.701               
C              13.102              -37.945             0.433               
C              14.515              -37.384             0.332               
O              15.28               -37.832             -0.529              
C              12.254              -37.426             -0.725              
O              12.616              -38.064             -1.934              
H              11.811              -36.844             1.842               
H              13.164              -38.954             0.356               
H              11.297              -37.614             -0.532              
H              12.402              -36.447             -0.818              
H              12.462              -39.048             -1.852              
N              14.875              -36.407             1.171               
C              16.272              -35.979             1.226               
C              17.168              -37.143             1.61                
O              18.194              -37.393             0.966               
C              16.478              -34.843             2.231               
C              15.329              -33.894             2.425               
C              15.397              -33.221             3.788               
H              14.124              -36.009             1.739               
H              16.537              -35.673             0.306               
H              16.706              -35.255             3.131               
H              17.289              -34.305             1.937               
H              15.363              -33.187             1.726               
H              14.472              -34.397             2.367               
O              15.363              -33.886             4.826               
N              15.493              -31.899             3.791               
H              15.529              -31.38              4.664               
H              15.531              -31.406             2.899               
N              16.803              -37.861             2.662               
C              17.611              -38.981             3.112               
C              16.898              -40.319             2.97                
O              16.424              -40.676             1.893               
C              18.027              -38.809             4.571               
C              18.856              -37.561             4.851               
C              19.235              -37.455             6.317               
C              20.057              -36.224             6.618               
N              20.402              -36.163             8.061               
O              16.687              -41.195             3.815               
H              15.924              -37.563             3.117               
H              18.465              -39.011             2.562               
H              17.199              -38.765             5.13                
H              18.566              -39.608             4.84                
H              19.692              -37.597             4.301               
H              18.325              -36.753             4.593               
H              18.396              -37.422             6.863               
H              19.764              -38.265             6.572               
H              20.899              -36.252             6.079               
H              19.532              -35.409             6.371               
H              20.553              -35.211             8.328               
H              19.652              -36.546             8.6                 
H              21.235              -36.691             8.227               
H              8.15677             -20.2247            -2.41183            
