201
1.xyz
C              23.087              -0.003              -18.58              
O              24.202              -0.513              -18.441             
N              22.849              0.88                -19.561             
C              23.933              1.299               -20.425             
C              25.046              1.978               -19.631             
O              26.227              1.656               -19.804             
C              23.41               2.202               -21.563             
C              24.532              2.578               -22.48              
C              25.163              1.606               -23.24              
C              25.008              3.877               -22.572             
C              26.22               1.912               -24.058             
C              26.063              4.206               -23.391             
C              26.682              3.213               -24.139             
O              27.742              3.502               -24.968             
H              21.881              1.207               -19.631             
H              24.325              0.482               -20.87              
H              22.738              1.694               -22.067             
H              23.04               3.016               -21.157             
H              24.836              0.654               -23.188             
H              24.567              4.597               -22.024             
H              26.665              1.191               -24.605             
H              26.387              5.15                -23.452             
H              28.519              2.926               -24.72              
N              24.687              2.913               -18.759             
C              25.723              3.566               -17.963             
C              26.319              2.62                -16.927             
O              27.515              2.702               -16.652             
C              25.205              4.886               -17.399             
C              25.047              5.936               -18.461             
H              23.692              3.12                -18.699             
H              26.463              3.861               -18.584             
H              24.314              4.735               -16.972             
H              25.849              5.227               -16.715             
N              23.834              6.484               -18.8               
C              25.958              6.511               -19.266             
C              23.997              7.348               -19.789             
N              25.277              7.38                -20.097             
H              22.958              6.264               -18.365             
H              26.941              6.348               -19.272             
H              23.277              7.878               -20.223             
N              25.548              1.648               -16.458             
C              26.144              0.605               -15.612             
C              27.278              -0.102              -16.339             
O              28.363              -0.3                -15.787             
C              25.102              -0.425              -15.202             
O              24.014              0.183               -14.51              
C              25.723              -1.465              -14.255             
H              24.563              1.683               -16.719             
H              26.517              1.044               -14.787             
H              24.726              -0.877              -16.048             
H              25.815              -2.338              -14.734             
H              26.625              -1.149              -13.96              
H              25.132              -1.582              -13.457             
H              23.507              0.801               -15.122             
N              27.065              -0.472              -17.609             
C              28.114              -1.146              -18.364             
C              29.337              -0.251              -18.498             
O              30.473              -0.696              -18.318             
C              27.596              -1.57               -19.756             
C              28.763              -2.073              -20.647             
C              26.512              -2.656              -19.619             
H              26.135              -0.245              -17.982             
H              28.386              -1.97               -17.856             
H              27.228              -0.765              -20.206             
H              29.037              -1.338              -21.259             
H              29.523              -2.333              -20.06              
H              28.449              -2.858              -21.171             
H              25.904              -2.603              -20.407             
H              26.955              -3.549              -19.586             
H              26.001              -2.495              -18.779             
N              29.123              1.032               -18.855             
C              30.274              1.909               -19.092             
C              31.146              1.985               -17.846             
O              32.37               1.845               -17.914             
C              29.82               3.312               -19.501             
C              29.079              3.516               -20.82              
C              29.007              5.011               -21.137             
C              29.775              2.751               -21.926             
H              28.149              1.312               -18.938             
H              30.819              1.522               -19.841             
H              29.218              3.662               -18.765             
H              30.642              3.901               -19.528             
H              28.157              3.154               -20.738             
H              29.933              5.377               -21.213             
H              28.522              5.143               -22                 
H              28.519              5.481               -20.403             
H              29.789              1.774               -21.705             
H              29.287              2.887               -22.79              
H              30.716              3.08                -22.024             
N              30.525              2.167               -16.683             
C              31.302              2.32                -15.465             
C              31.938              1                   -15.051             
O              33.107              0.972               -14.663             
C              30.414              2.855               -14.344             
C              30.017              4.286               -14.525             
C              28.776              4.755               -14.8               
C              30.879              5.422               -14.489             
N              28.797              6.118               -14.915             
C              30.08               6.555               -14.749             
C              32.249              5.593               -14.262             
C              30.6                7.849               -14.756             
C              32.767              6.876               -14.266             
C              31.94               7.99                -14.521             
H              29.5                2.188               -16.726             
H              32.049              2.97                -15.654             
H              29.579              2.318               -14.31              
H              30.906              2.791               -13.483             
H              27.955              4.188               -14.906             
H              28.004              6.701               -15.092             
H              32.843              4.81                -14.099             
H              30                  8.635               -14.929             
H              33.734              7.015               -14.088             
H              32.358              8.9                 -14.527             
N              31.193              -0.101              -15.135             
C              31.748              -1.362              -14.659             
C              32.85               -1.885              -15.559             
O              33.811              -2.477              -15.057             
C              30.648              -2.402              -14.467             
C              29.607              -2.045              -13.431             
S              30.357              -1.521              -11.856             
C              28.878              -1.385              -10.836             
H              30.264              0.013               -15.535             
H              32.142              -1.203              -13.739             
H              30.18               -2.55               -15.355             
H              31.075              -3.283              -14.202             
H              29.009              -1.303              -13.801             
H              28.996              -2.85               -13.279             
H              28.205              -2.058              -11.139             
H              29.118              -1.556              -9.881              
H              28.497              -0.465              -10.927             
N              32.745              -1.647              -16.87              
C              33.849              -1.98               -17.76              
C              35.108              -1.213              -17.374             
O              36.208              -1.772              -17.378             
C              33.464              -1.717              -19.221             
C              32.293              -2.562              -19.74              
C              32.712              -3.927              -20.241             
O              33.826              -4.38               -19.906             
O              31.915              -4.543              -20.981             
H              31.859              -1.229              -17.173             
H              34.033              -2.969              -17.717             
H              33.199              -0.771              -19.297             
H              34.247              -1.925              -19.782             
H              31.663              -2.693              -18.995             
H              31.88               -2.078              -20.491             
N              34.968              0.065               -17.019             
C              36.125              0.839               -16.588             
C              36.701              0.292               -15.287             
O              37.921              0.255               -15.105             
C              35.732              2.307               -16.435             
C              36.895              3.221               -16.057             
C              37.931              3.34                -17.16              
H              34.011              0.436               -17.075             
H              36.836              0.757               -17.297             
H              35.353              2.633               -17.302             
H              35.035              2.383               -15.72              
H              36.533              4.131               -15.859             
H              37.337              2.852               -15.24              
O              37.606              3.271               -18.339             
N              39.188              3.529               -16.775             
H              39.938              3.604               -17.457             
H              39.391              3.599               -15.779             
N              35.842              -0.106              -14.345             
C              36.322              -0.735              -13.121             
C              37.195              -1.94               -13.45              
O              38.294              -2.097              -12.904             
C              35.145              -1.129              -12.212             
C              35.637              -1.913              -11.019             
C              34.38               0.086               -11.741             
H              34.848              0.066               -14.556             
H              36.888              -0.068              -12.626             
H              34.548              -1.731              -12.736             
H              35.522              -2.894              -11.186             
H              36.607              -1.718              -10.861             
H              35.114              -1.656              -10.204             
H              34.073              -0.056              -10.798             
H              34.974              0.892               -11.779             
H              33.584              0.231               -12.332             
N              36.716              -2.813              -14.337             
C              37.495              -4.006              -14.654             
C              38.847              -3.63               -15.238             
O              39.864              -4.243              -14.902             
C              36.742              -4.902              -15.63              
C              35.474              -5.561              -15.096             
C              34.867              -6.366              -16.219             
C              35.758              -6.448              -13.898             
H              35.811              -2.583              -14.748             
H              37.647              -4.524              -13.804             
H              36.48               -4.347              -16.417             
H              37.358              -5.63               -15.917             
H              34.841              -4.857              -14.806             
H              35.516              -7.065              -16.527             
H              34.028              -6.815              -15.902             
H              34.645              -5.763              -16.989             
H              36.159              -5.901              -13.161             
H              34.905              -6.862              -13.576             
H              36.399              -7.172              -14.159             
N              38.877              -2.617              -16.103             
H              37.961              -2.198              -16.323             
H              22.2759             -0.288477           -17.9567            
H              39.7541             -2.30267            -16.4999            
