286
6.xyz
C              -19.289             -4.62               -1.218              
C              -18.532             -5.938              -1.294              
O              -18.066             -6.476              -0.277              
C              -20.812             -4.824              -1.317              
C              -21.527             -3.524              -0.952              
C              -21.268             -6.001              -0.463              
C              -22.958             -3.505              -1.265              
H              -19.031             -4.189              -0.351              
H              -21.031             -5.043              -2.258              
H              -21.386             -3.366              0.034               
H              -21.06              -2.776              -1.443              
H              -22.248             -6.143              -0.589              
H              -20.774             -6.823              -0.739              
H              -21.081             -5.807              0.498               
H              -23.44              -4.238              -0.77               
H              -23.368             -2.624              -1.001              
H              -23.108             -3.639              -2.252              
N              -18.414             -6.487              -2.503              
C              -17.762             -7.777              -2.662              
C              -16.28              -7.712              -2.322              
O              -15.74              -8.659              -1.74               
C              -17.962             -8.318              -4.071              
C              -19.386             -8.746              -4.399              
S              -20.165             -9.847              -3.205              
C              -19.013             -11.205             -3.204              
H              -18.81              -5.937              -3.277              
H              -18.198             -8.432              -2.027              
H              -17.684             -7.609              -4.74               
H              -17.353             -9.117              -4.207              
H              -19.956             -7.885              -4.53               
H              -19.381             -9.177              -5.346              
H              -18.56              -11.267             -2.312              
H              -19.498             -12.064             -3.385              
H              -18.319             -11.064             -3.915              
N              -15.594             -6.62               -2.679              
C              -14.18              -6.509              -2.33               
C              -13.996             -6.562              -0.818              
O              -13.125             -7.272              -0.303              
C              -13.564             -5.218              -2.886              
C              -12.057             -5.124              -2.603              
C              -11.506             -3.721              -2.757              
N              -11.676             -3.199              -4.105              
C              -10.814             -3.342              -5.112              
N              -9.687              -4.017              -4.962              
N              -11.106             -2.821              -6.295              
H              -16.124             -5.911              -3.19               
H              -13.683             -7.28               -2.742              
H              -13.69              -5.206              -3.864              
H              -14.002             -4.449              -2.452              
H              -11.884             -5.432              -1.664              
H              -11.57              -5.726              -3.24               
H              -11.984             -3.127              -2.11               
H              -10.532             -3.745              -2.532              
H              -12.528             -2.677              -4.301              
H              -9.47               -4.452              -4.087              
H              -9.043              -4.097              -5.727              
H              -11.974             -2.342              -6.434              
H              -10.459             -2.905              -7.054              
N              -14.794             -5.793              -0.09               
C              -14.634             -5.777              1.354               
C              -14.999             -7.126              1.965               
O              -14.354             -7.582              2.923               
C              -15.473             -4.648              1.936               
C              -15.405             -4.531              3.433               
C              -13.978             -4.348              3.998               
N              -13.992             -4.427              5.459               
C              -12.92              -4.661              6.213               
N              -11.736             -4.844              5.636               
N              -13.027             -4.714              7.541               
H              -15.487             -5.248              -0.606              
H              -13.67              -5.576              1.575               
H              -15.155             -3.788              1.538               
H              -16.426             -4.803              1.676               
H              -15.949             -3.74               3.744               
H              -15.787             -5.36               3.863               
H              -13.416             -5.071              3.629               
H              -13.657             -3.458              3.714               
H              -14.875             -4.295              5.927               
H              -11.626             -4.79               4.65                
H              -10.931             -5.04               6.213               
H              -13.924             -4.555              7.963               
H              -12.231             -4.906              8.102               
N              -16.031             -7.779              1.432               
C              -16.395             -9.116              1.895               
C              -15.24              -10.089             1.693               
O              -14.875             -10.84              2.612               
C              -17.649             -9.594              1.154               
C              -18.083             -10.979             1.532               
C              -18.834             -11.193             2.675               
C              -17.744             -12.073             0.757               
C              -19.24              -12.467             3.039               
C              -18.155             -13.349             1.114               
C              -18.903             -13.544             2.255               
H              -16.534             -7.272              0.686               
H              -16.55              -9.051              2.886               
H              -18.384             -8.97               1.373               
H              -17.447             -9.588              0.187               
H              -19.092             -10.417             3.251               
H              -17.197             -11.945             -0.072              
H              -19.781             -12.591             3.882               
H              -17.897             -14.137             0.526               
H              -19.201             -14.465             2.513               
N              -14.663             -10.092             0.485               
C              -13.505             -10.929             0.193               
C              -12.354             -10.65              1.156               
O              -11.786             -11.576             1.748               
C              -13.048             -10.7               -1.25               
C              -11.747             -11.373             -1.547              
C              -11.682             -12.752             -1.69               
C              -10.571             -10.645             -1.602              
C              -10.462             -13.377             -1.897              
C              -9.36               -11.264             -1.818              
C              -9.302              -12.629             -1.954              
H              -15.105             -9.459              -0.207              
H              -13.786             -11.885             0.347               
H              -13.735             -11.076             -1.845              
H              -12.933             -9.732              -1.378              
H              -12.511             -13.297             -1.646              
H              -10.605             -9.647              -1.483              
H              -10.431             -14.38              -2.004              
H              -8.513              -10.704             -1.874              
H              -8.422              -13.09              -2.095              
N              -11.984             -9.375              1.31                
C              -10.834             -9.039              2.146               
C              -11.054             -9.483              3.586               
O              -10.135             -9.988              4.246               
C              -10.577             -7.533              2.086               
C              -9.986              -7.048              0.773               
C              -10.009             -5.528              0.646               
O              -10.736             -4.873              1.422               
O              -9.306              -4.987              -0.232              
H              -12.557             -8.685              0.809               
H              -10.008             -9.485              1.779               
H              -11.442             -7.076              2.211               
H              -9.938              -7.309              2.802               
H              -9.048              -7.331              0.731               
H              -10.522             -7.411              0.036               
N              -12.278             -9.326              4.084               
C              -12.577             -9.685              5.466               
C              -12.49              -11.193             5.673               
O              -11.912             -11.661             6.661               
C              -13.967             -9.162              5.828               
O              -14.274             -9.424              7.185               
H              -12.974             -8.94               3.426               
H              -11.887             -9.252              6.058               
H              -13.99              -8.178              5.674               
H              -14.64              -9.615              5.25                
H              -15.227             -9.714              7.262               
N              -13.077             -11.968             4.758               
C              -13.029             -13.42              4.882               
C              -11.613             -13.927             4.69                
O              -11.166             -14.828             5.408               
C              -13.945             -14.094             3.863               
C              -15.412             -13.742             3.951               
C              -16.046             -14.205             5.261               
N              -16.22              -15.658             5.327               
C              -15.366             -16.511             5.895               
N              -14.246             -16.082             6.458               
N              -15.632             -17.808             5.902               
H              -13.545             -11.467             3.991               
H              -13.344             -13.677             5.803               
H              -13.62              -13.848             2.943               
H              -13.856             -15.089             3.977               
H              -15.526             -12.749             3.89                
H              -15.91              -14.179             3.201               
H              -15.455             -13.91              6.01                
H              -16.938             -13.763             5.343               
H              -17.056             -16.047             4.908               
H              -14.032             -15.106             6.484               
H              -13.606             -16.74              6.864               
H              -16.487             -18.142             5.496               
H              -14.989             -18.453             6.309               
N              -10.895             -13.346             3.729               
C              -9.525              -13.757             3.452               
C              -8.659              -13.674             4.699               
O              -7.874              -14.587             4.988               
C              -8.953              -12.846             2.373               
C              -7.679              -13.321             1.807               
C              -6.436              -12.819             2.022               
C              -7.524              -14.413             0.911               
N              -5.506              -13.535             1.304               
C              -6.159              -14.508             0.595               
C              -8.417              -15.308             0.326               
C              -5.664              -15.472             -0.271              
C              -7.935              -16.254             -0.533              
C              -6.564              -16.339             -0.821              
H              -11.387             -12.596             3.211               
H              -9.547              -14.722             3.16                
H              -9.613              -12.781             1.629               
H              -8.795              -11.944             2.768               
H              -6.22               -12.043             2.614               
H              -4.523              -13.373             1.3                 
H              -9.396              -15.259             0.533               
H              -4.682              -15.517             -0.476              
H              -8.564              -16.897             -0.966              
H              -6.251              -17.057             -1.446              
N              -8.792              -12.579             5.448               
C              -7.957              -12.34              6.617               
C              -8.151              -13.403             7.686               
O              -7.252              -13.611             8.509               
C              -8.306              -10.957             7.168               
C              -7.321              -10.361             8.145               
C              -7.663              -8.915              8.445               
O              -6.741              -8.069              8.455               
O              -8.863              -8.621              8.647               
H              -9.533              -11.923             5.127               
H              -6.983              -12.317             6.338               
H              -8.376              -10.338             6.393               
H              -9.182              -11.033             7.63                
H              -7.375              -10.857             8.984               
H              -6.431              -10.376             7.742               
N              -9.294              -14.087             7.695               
C              -9.513              -15.153             8.669               
C              -8.632              -16.369             8.408               
O              -8.213              -17.043             9.355               
C              -10.969             -15.587             8.659               
C              -11.904             -14.464             9.056               
C              -13.351             -14.889             9.087               
O              -13.616             -16.072             9.391               
O              -14.223             -14.043             8.801               
H              -9.982              -13.808             6.982               
H              -9.331              -14.801             9.601               
H              -11.198             -15.857             7.747               
H              -11.075             -16.308             9.311               
H              -11.66              -14.165             9.962               
H              -11.819             -13.74              8.393               
N              -8.352              -16.677             7.144               
C              -7.596              -17.871             6.788               
C              -6.155              -17.568             6.407               
O              -5.284              -18.415             6.617               
C              -8.277              -18.593             5.615               
C              -9.716              -18.957             5.873               
C              -10.677             -18.753             4.899               
C              -10.113             -19.506             7.083               
C              -12.001             -19.082             5.126               
C              -11.441             -19.836             7.307               
C              -12.378             -19.629             6.326               
H              -8.716              -15.999             6.442               
H              -7.563              -18.456             7.616               
H              -8.249              -17.989             4.833               
H              -7.776              -19.428             5.444               
H              -10.415             -18.364             4.017               
H              -9.435              -19.666             7.801               
H              -12.684             -18.913             4.399               
H              -11.71              -20.231             8.205               
H              -13.339             -19.877             6.483               
N              -5.907              -16.379             5.85                
C              -4.606              -15.953             5.339               
C              -4.348              -14.566             5.918               
O              -4.843              -13.573             5.379               
C              -4.648              -15.87              3.814               
C              -4.866              -17.195             3.135               
C              -3.816              -18.082             2.997               
C              -6.115              -17.573             2.645               
C              -3.982              -19.291             2.384               
C              -6.292              -18.807             2.026               
C              -5.214              -19.658             1.902               
O              -5.351              -20.882             1.286               
H              -6.76               -15.753             5.809               
H              -3.914              -16.569             5.686               
H              -5.393              -15.257             3.556               
H              -3.778              -15.495             3.498               
H              -2.908              -17.828             3.357               
H              -6.889              -16.955             2.739               
H              -3.198              -19.922             2.284               
H              -7.189              -19.068             1.677               
H              -4.446              -21.243             1.071               
N              -3.589              -14.475             7.002               
C              -3.256              -13.154             7.546               
C              -1.833              -12.752             7.173               
O              -1.036              -13.571             6.708               
C              -3.457              -13.077             9.066               
C              -3.114              -14.332             9.825               
C              -4.171              -15.396             9.661               
O              -3.868              -16.544             9.346               
N              -5.416              -15.03              9.908               
O              -1.457              -11.587             7.317               
H              -3.271              -15.36              7.406               
H              -3.884              -12.485             7.134               
H              -2.888              -12.324             9.421               
H              -4.424              -12.851             9.245               
H              -2.246              -14.691             9.485               
H              -3.03               -14.112             10.796              
H              -6.19               -15.69              9.806               
H              -5.602              -14.072             10.207              
H              -18.96              -3.96271            -1.98738            
