184
5.xyz
C              -13.584             1.159               -14.42              
O              -13.739             2.258               -14.972             
N              -14.408             0.138               -14.637             
C              -15.411             0.232               -15.686             
C              -16.65              1.007               -15.253             
O              -17.251             1.701               -16.083             
C              -15.809             -1.16               -16.186             
C              -16.631             -1.097              -17.432             
C              -16.033             -0.783              -18.637             
C              -18                 -1.278              -17.396             
C              -16.781             -0.672              -19.79              
C              -18.756             -1.163              -18.556             
C              -18.139             -0.851              -19.745             
H              -14.277             -0.677              -14.029             
H              -14.994             0.754               -16.448             
H              -14.983             -1.655              -16.383             
H              -16.344             -1.589              -15.482             
H              -15.045             -0.635              -18.678             
H              -18.453             -1.494              -16.532             
H              -16.318             -0.457              -20.663             
H              -19.758             -1.309              -18.514             
H              -18.685             -0.754              -20.585             
N              -17.083             0.841               -13.994             
C              -18.391             1.296               -13.531             
C              -18.263             2.443               -12.54              
O              -17.302             2.512               -11.774             
C              -19.138             0.155               -12.844             
C              -19.314             -1.039              -13.748             
H              -16.395             0.354               -13.372             
H              -18.883             1.653               -14.336             
H              -18.617             -0.123              -12.042             
H              -20.037             0.488               -12.572             
O              -20.225             -1.077              -14.581             
N              -18.43              -2.02               -13.604             
H              -17.703             -1.945              -12.921             
H              -18.49              -2.837              -14.179             
N              -19.257             3.331               -12.533             
C              -19.324             4.378               -11.517             
C              -19.564             3.78                -10.136             
O              -20.286             2.798               -9.982              
C              -20.476             5.338               -11.824             
C              -20.262             6.167               -13.06              
C              -19.125             7.14                -12.883             
O              -19.159             7.91                -11.908             
O              -18.177             7.11                -13.686             
H              -19.954             3.216               -13.287             
H              -18.463             4.9                 -11.512             
H              -21.286             4.793               -11.957             
H              -20.564             5.949               -11.057             
H              -20.03              5.569               -13.802             
H              -21.074             6.688               -13.234             
N              -19.01              4.428               -9.11               
C              -19.172             3.935               -7.741              
C              -20.634             3.855               -7.317              
O              -21.003             2.987               -6.51               
C              -18.435             4.847               -6.765              
C              -16.93              4.763               -6.893              
O              -16.392             3.771               -7.454              
O              -16.284             5.707               -6.405              
H              -18.478             5.274               -9.357              
H              -18.805             2.992               -7.721              
H              -18.72              5.785               -6.945              
H              -18.694             4.582               -5.841              
N              -21.475             4.751               -7.826              
C              -22.873             4.787               -7.428              
C              -23.795             4.077               -8.418              
O              -25.019             4.147               -8.256              
C              -23.325             6.218               -7.118              
C              -23.183             7.148               -8.29               
O              -22.987             6.674               -9.418              
O              -23.27              8.375               -8.08               
H              -21.054             5.403               -8.513              
H              -22.949             4.288               -6.548              
H              -24.283             6.18                -6.845              
H              -22.768             6.555               -6.364              
N              -23.238             3.343               -9.388              
C              -24.036             2.445               -10.205             
C              -24.303             1.16                -9.434              
O              -23.616             0.837               -8.464              
C              -23.318             2.095               -11.511             
O              -22.157             1.303               -11.3               
H              -22.217             3.472               -9.497              
H              -24.918             2.884               -10.386             
H              -23.95              1.59                -12.1               
H              -23.049             2.945               -11.967             
H              -21.472             1.842               -10.813             
N              -25.299             0.399               -9.883              
C              -25.603             -0.844              -9.179              
C              -24.433             -1.823              -9.238              
O              -24.092             -2.453              -8.228              
C              -26.88              -1.478              -9.728              
C              -28.133             -0.691              -9.359              
C              -28.221             -0.395              -7.864              
O              -28.182             -1.343              -7.045              
O              -28.29              0.796               -7.507              
H              -25.794             0.739               -10.704             
H              -25.821             -0.642              -8.215              
H              -26.815             -1.49               -10.704             
H              -26.966             -2.371              -9.338              
H              -28.106             0.17                -9.828              
H              -28.918             -1.228              -9.599              
N              -23.808             -1.981              -10.405             
C              -22.67              -2.885              -10.498             
C              -21.492             -2.341              -9.696              
O              -20.799             -3.09               -8.999              
C              -22.323             -3.147              -11.977             
C              -21.018             -3.929              -12.091             
C              -23.457             -3.903              -12.659             
H              -24.183             -1.436              -11.187             
H              -22.935             -3.768              -10.098             
H              -22.172             -2.266              -12.414             
H              -21.21              -4.908              -12.027             
H              -20.587             -3.73               -12.97              
H              -20.404             -3.66               -11.35              
H              -23.131             -4.807              -12.934             
H              -24.219             -3.999              -12.02              
H              -23.755             -3.393              -13.465             
N              -21.232             -1.035              -9.778              
C              -20.134             -0.469              -9.019              
C              -20.306             -0.641              -7.521              
O              -19.353             -0.988              -6.809              
H              -21.852             -0.5                -10.397             
H              -19.264             -0.907              -9.307              
H              -20.051             0.521               -9.233              
N              -21.519             -0.399              -7.021              
C              -21.775             -0.588              -5.596              
C              -21.517             -2.025              -5.188              
O              -20.949             -2.288              -4.118              
C              -23.224             -0.216              -5.272              
C              -23.487             1.274               -5.324              
C              -24.864             1.657               -4.855              
C              -25.954             1.332               -5.835              
N              -27.26              1.91                -5.366              
H              -22.222             -0.083              -7.698              
H              -21.16              0.015               -5.074              
H              -23.815             -0.666              -5.935              
H              -23.429             -0.543              -4.354              
H              -22.801             1.745               -4.749              
H              -23.363             1.594               -6.275              
H              -25.057             1.177               -3.989              
H              -24.881             2.649               -4.673              
H              -25.735             1.723               -6.726              
H              -26.054             0.343               -5.913              
H              -27.568             2.591               -6.025              
H              -27.932             1.177               -5.295              
H              -27.125             2.336               -4.475              
N              -21.959             -2.969              -6.015              
C              -21.787             -4.38               -5.703              
C              -20.312             -4.746              -5.631              
O              -19.904             -5.531              -4.768              
C              -22.529             -5.235              -6.74               
H              -22.421             -2.62               -6.872              
H              -22.209             -4.569              -4.807              
H              -23.168             -5.839              -6.27               
H              -23.027             -4.636              -7.363              
H              -21.867             -5.778              -7.252              
N              -19.498             -4.209              -6.544              
C              -18.078             -4.507              -6.518              
C              -17.414             -4.063              -5.23               
O              -16.581             -4.782              -4.668              
H              -19.953             -3.595              -7.232              
H              -17.942             -5.506              -6.637              
H              -17.624             -4.05               -7.303              
N              -17.77              -2.868              -4.739              
C              -17.176             -2.401              -3.49               
C              -17.576             -3.289              -2.32               
O              -16.751             -3.579              -1.444              
C              -17.56              -0.95               -3.226              
C              -16.912             0.008               -4.171              
H              -18.455             -2.348              -5.289              
H              -16.172             -2.434              -3.583              
H              -18.556             -0.853              -3.31               
H              -17.289             -0.704              -2.291              
N              -15.544             0.1                 -4.314              
C              -17.444             0.919               -5.016              
C              -15.265             1.027               -5.215              
N              -16.399             1.533               -5.661              
H              -18.413             1.112               -5.148              
H              -14.351             1.298               -5.507              
H              -16.484             2.248               -6.358              
N              -18.837             -3.717              -2.275              
H              -19.448             -3.365              -3.03               
H              -12.7618            0.992181            -13.773             
H              -19.1506            -4.34357            -1.54157            
