182
2.xyz
C              2.375               8.957               -35.418             
O              2.626               8.458               -34.318             
N              1.384               9.832               -35.611             
C              0.487               10.177              -34.513             
C              -0.214              8.937               -33.976             
O              -0.458              8.821               -32.768             
C              -0.539              11.211              -34.975             
C              0.069               12.44               -35.624             
C              -0.48               13.72               -35.018             
N              0.207               14.899              -35.539             
C              0.287               16.067              -34.907             
N              -0.27               16.227              -33.713             
N              0.937               17.077              -35.469             
H              1.316               10.22               -36.559             
H              1.027               10.589              -33.77              
H              -1.142              10.776              -35.638             
H              -1.062              11.507              -34.181             
H              1.057               12.433              -35.492             
H              -0.144              12.442              -36.598             
H              -1.448              13.778              -35.24              
H              -0.354              13.674              -34.032             
H              0.652               14.823              -36.441             
H              -0.739              15.472              -33.262             
H              -0.218              17.121              -33.255             
H              1.382               16.95               -36.359             
H              0.986               17.962              -35.009             
N              -0.547              7.996               -34.864             
C              -1.148              6.741               -34.429             
C              -0.197              5.961               -33.532             
O              -0.612              5.396               -32.513             
C              -1.537              5.9                 -35.646             
O              -0.358              5.524               -36.369             
C              -2.454              6.685               -36.568             
H              -0.347              8.231               -35.848             
H              -1.981              6.951               -33.902             
H              -1.998              5.046               -35.328             
H              -1.915              7.326               -37.12              
H              -2.943              6.057               -37.179             
H              -3.122              7.201               -36.026             
H              0.464               5.844               -35.887             
N              1.089               5.926               -33.893             
C              2.062               5.149               -33.131             
C              2.323               5.766               -31.763             
O              2.519               5.044               -30.778             
C              3.363               5.03                -33.929             
C              3.251               4.115               -35.141             
C              4.278               4.416               -36.22              
O              4.296               3.692               -37.239             
O              5.062               5.374               -36.058             
H              1.323               6.48                -34.732             
H              1.724               4.205               -33.014             
H              3.598               5.926               -34.254             
H              4.047               4.654               -33.334             
H              3.398               3.188               -34.842             
H              2.359               4.237               -35.539             
N              2.329               7.094               -31.676             
C              2.59                7.79                -30.416             
C              1.762               9.063               -30.369             
O              2.25                10.159              -30.672             
C              4.079               8.103               -30.256             
H              2.134               7.589               -32.57              
H              2.316               7.197               -29.658             
H              4.413               8.553               -31.083             
H              4.207               8.706               -29.471             
H              4.581               7.253               -30.111             
N              0.487               8.956               -29.995             
C              -0.343              10.161              -29.87              
C              0.267               11.155              -28.892             
O              0.737               10.788              -27.813             
C              -1.685              9.62                -29.363             
C              -1.707              8.185               -29.785             
C              -0.278              7.722               -29.741             
H              -0.487              10.587              -30.772             
H              -1.743              9.701               -28.364             
H              -2.448              10.127              -29.773             
H              -2.28               7.643               -29.159             
H              -2.084              8.098               -30.714             
H              -0.043              7.342               -28.846             
H              -0.09               7.041               -30.45              
N              0.253               12.429              -29.283             
C              0.831               13.482              -28.477             
C              2.338               13.588              -28.547             
O              2.916               14.428              -27.845             
H              -0.204              12.591              -30.205             
H              0.42                14.381              -28.754             
H              0.551               13.348              -27.498             
N              2.992               12.764              -29.367             
C              4.445               12.815              -29.491             
C              4.915               14.212              -29.878             
O              5.864               14.749              -29.292             
C              4.897               11.78               -30.525             
C              6.39                11.699              -30.761             
C              7.202               10.928              -29.94              
C              6.982               12.372              -31.821             
C              8.566               10.842              -30.158             
C              8.345               12.291              -32.048             
C              9.132               11.525              -31.215             
O              10.488              11.441              -31.436             
H              2.393               12.104              -29.892             
H              4.847               12.586              -28.596             
H              4.58                10.877              -30.221             
H              4.456               12                  -31.4               
H              6.794               10.424              -29.174             
H              6.414               12.924              -32.431             
H              9.139               10.285              -29.552             
H              8.757               12.788              -32.814             
H              10.915              10.957              -30.674             
N              4.25                14.824              -30.854             
C              4.703               16.083              -31.43              
C              4.339               17.299              -30.59              
O              4.617               18.426              -31.014             
C              4.141               16.22               -32.845             
C              4.773               15.235              -33.8               
C              5.999               15.507              -34.39              
C              4.161               14.023              -34.089             
C              6.591               14.61               -35.253             
C              4.747               13.116              -34.952             
C              5.963               13.416              -35.53              
O              6.556               12.522              -36.39              
H              3.387               14.33               -31.166             
H              5.717               16.048              -31.509             
H              3.168               16.045              -32.813             
H              4.331               17.135              -33.17              
H              6.463               16.374              -34.185             
H              3.283               13.803              -33.665             
H              7.476               14.825              -35.677             
H              4.293               12.248              -35.157             
H              5.989               11.703              -36.455             
N              3.737               17.108              -29.42              
C              3.577               18.182              -28.45              
C              4.637               18.135              -27.359             
O              4.606               18.964              -26.445             
C              2.179               18.13               -27.824             
C              1.084               18.713              -28.71              
C              0.793               17.86               -29.931             
O              0.645               16.629              -29.778             
O              0.715               18.419              -31.046             
H              3.395               16.137              -29.261             
H              3.623               19.076              -28.924             
H              1.959               17.186              -27.662             
H              2.202               18.656              -26.995             
H              0.258               18.767              -28.18              
H              1.381               19.595              -29.027             
N              5.573               17.186              -27.436             
C              6.672               17.077              -26.489             
C              8.023               17.2                -27.179             
O              8.96                17.784              -26.623             
C              6.598               15.749              -25.702             
C              7.084               15.948              -24.272             
C              5.189               15.174              -25.733             
H              5.444               16.527              -28.24              
H              6.592               17.835              -25.825             
H              7.222               15.107              -26.136             
H              6.778               16.839              -23.937             
H              6.71                15.226              -23.69              
H              8.083               15.909              -24.251             
H              5.018               14.674              -24.884             
H              4.53                15.92               -25.822             
H              5.103               14.554              -26.512             
N              8.142               16.663              -28.388             
C              9.401               16.61               -29.122             
C              9.357               17.738              -30.148             
O              8.746               17.608              -31.212             
C              9.607               15.239              -29.773             
C              9.701               14.15               -28.695             
C              10.846              15.237              -30.659             
C              10.953              14.219              -27.831             
H              7.245               16.276              -28.774             
H              10.113              16.843              -28.476             
H              8.814               15.04               -30.338             
H              8.897               14.222              -28.103             
H              9.678               13.258              -29.15              
H              10.933              14.349              -31.107             
H              10.762              15.952              -31.351             
H              11.655              15.408              -30.1               
H              10.977              15.098              -27.361             
H              10.93               13.479              -27.163             
H              11.757              14.124              -28.413             
N              10.012              18.856              -29.826             
H              10.595              18.794              -28.979             
H              2.95084             8.7141              -36.2793            
H              9.9218              19.6893             -30.3936            
