214
5.xyz
C              15.948              9.077               -24.971             
C              15.109              10.027              -24.124             
O              14.861              9.748               -22.945             
C              17.438              9.348               -24.765             
C              18.339              8.218               -25.243             
C              19.81               8.598               -25.188             
C              20.696              7.417               -25.556             
N              22.023              7.848               -26.082             
H              15.775              8.131               -24.662             
H              17.678              10.174              -25.269             
H              17.599              9.486               -23.79              
H              18.19               7.415               -24.661             
H              18.099              7.987               -26.188             
H              19.977              9.333               -25.835             
H              20.035              8.887               -24.265             
H              20.836              6.848               -24.739             
H              20.229              6.865               -26.255             
H              22.676              7.902               -25.327             
H              22.343              7.183               -26.756             
H              21.932              8.745               -26.512             
N              14.661              11.145              -24.699             
C              13.803              12.066              -23.963             
C              12.363              11.575              -23.88              
O              11.688              11.822              -22.876             
C              13.831              13.45               -24.615             
C              15.034              14.302              -24.241             
C              15.077              15.613              -25.005             
O              14.392              15.722              -26.043             
O              15.794              16.537              -24.566             
H              14.965              11.291              -25.672             
H              14.168              12.193              -23.026             
H              13.85               13.32               -25.593             
H              13.022              13.934              -24.327             
H              14.974              14.517              -23.285             
H              15.849              13.802              -24.464             
N              11.875              10.893              -24.916             
C              10.482              10.466              -24.949             
C              10.252              9.125               -24.267             
O              9.175               8.91                -23.699             
C              9.992               10.381              -26.4               
C              8.486               10.268              -26.533             
C              7.674               11.387              -26.399             
C              7.878               9.047               -26.796             
C              6.3                 11.293              -26.518             
C              6.503               8.943               -26.917             
C              5.72                10.07               -26.776             
O              4.351               9.977               -26.896             
H              12.555              10.7                -25.672             
H              9.926               11.164              -24.464             
H              10.286              11.204              -26.877             
H              10.402              9.576               -26.821             
H              8.092               12.28               -26.212             
H              8.444               8.229               -26.901             
H              5.729               12.112              -26.418             
H              6.08                8.056               -27.105             
H              4.124               9.158               -27.419             
N              11.229              8.226               -24.296             
C              11.02               6.851               -23.871             
C              11.815              6.516               -22.614             
O              12.814              7.172               -22.301             
C              11.415              5.882               -24.994             
C              10.579              6.07                -26.244             
O              11.079              6.522               -27.273             
N              9.297               5.729               -26.16              
H              12.141              8.587               -24.644             
H              10.042              6.755               -23.634             
H              12.371              6.041               -25.222             
H              11.289              4.952               -24.662             
H              8.934               5.374               -25.296             
H              8.698               5.825               -26.952             
N              11.399              5.492               -21.869             
C              12.151              5.085               -20.671             
C              13.406              4.314               -21.041             
O              13.55               3.853               -22.184             
C              11.156              4.193               -19.907             
C              9.826               4.38                -20.584             
C              10.132              4.75                -21.994             
H              12.374              5.889               -20.105             
H              11.444              3.229               -19.948             
H              11.106              4.468               -18.94              
H              9.292               3.526               -20.536             
H              9.302               5.105               -20.119             
H              10.257              3.944               -22.572             
H              9.423               5.336               -22.389             
N              14.33               4.13                -20.091             
C              15.615              3.496               -20.429             
C              15.517              2.013               -20.736             
O              16.448              1.465               -21.339             
C              16.465              3.741               -19.174             
C              15.467              3.823               -18.065             
C              14.247              4.488               -18.663             
H              16.058              3.996               -21.202             
H              17.103              2.983               -19.028             
H              16.98               4.595               -19.259             
H              15.239              2.905               -17.725             
H              15.83               4.368               -17.302             
H              13.405              4.132               -18.259             
H              14.28               5.481               -18.546             
N              14.434              1.344               -20.345             
C              14.314              -0.098              -20.511             
C              13.319              -0.472              -21.604             
O              12.866              -1.62               -21.661             
C              13.927              -0.744              -19.18              
C              14.797              -0.292              -18.006             
C              16.267              -0.64               -18.187             
O              16.581              -1.835              -18.371             
O              17.11               0.283               -18.15              
H              13.692              1.935               -19.916             
H              15.22               -0.49               -20.736             
H              13.002              -0.486              -18.977             
H              14.037              -1.714              -19.271             
H              14.729              0.685               -17.934             
H              14.481              -0.749              -17.196             
N              12.971              0.473               -22.473             
C              12.168              0.182               -23.65              
C              13.078              -0.215              -24.806             
O              14.247              0.178               -24.864             
C              11.325              1.392               -24.05              
O              12.101              2.329               -24.776             
H              13.32               1.426               -22.238             
H              11.576              -0.599              -23.442             
H              10.571              1.084               -24.621             
H              10.978              1.828               -23.226             
H              12.516              2.98                -24.142             
N              12.528              -1.002              -25.734             
C              13.309              -1.444              -26.884             
C              13.748              -0.267              -27.748             
O              14.805              -0.329              -28.387             
C              12.498              -2.442              -27.715             
C              13.312              -3.213              -28.75              
C              14.023              -4.423              -28.167             
O              13.907              -4.661              -26.946             
O              14.699              -5.139              -28.936             
H              11.545              -1.256              -25.57              
H              14.124              -1.948              -26.566             
H              12.107              -3.101              -27.095             
H              11.805              -1.937              -28.199             
H              12.697              -3.536              -29.445             
H              14                  -2.611              -29.112             
N              12.955              0.808               -27.786             
C              13.357              1.996               -28.532             
C              14.638              2.584               -27.954             
O              15.597              2.866               -28.684             
C              12.238              3.042               -28.516             
C              10.894              2.54                -29.001             
C              10.717              2.122               -30.314             
C              9.798               2.503               -28.15              
C              9.488               1.667               -30.76              
C              8.565               2.052               -28.588             
C              8.416               1.634               -29.892             
O              7.189               1.184               -30.327             
H              12.074              0.723               -27.263             
H              13.538              1.726               -29.484             
H              12.129              3.368               -27.577             
H              12.515              3.804               -29.102             
H              11.491              2.15                -30.95              
H              9.902               2.807               -27.202             
H              9.379               1.362               -31.709             
H              7.786               2.031               -27.959             
H              6.931               1.684               -31.151             
N              14.668              2.774               -26.634             
C              15.861              3.291               -25.975             
C              17.053              2.373               -26.213             
O              18.148              2.834               -26.555             
C              15.588              3.451               -24.478             
C              16.555              4.353               -23.741             
C              17.874              3.973               -23.534             
C              16.137              5.575               -23.224             
C              18.756              4.79                -22.849             
C              17.011              6.397               -22.533             
C              18.319              6.001               -22.35              
O              19.194              6.817               -21.669             
H              13.795              2.529               -26.137             
H              16.076              4.192               -26.37              
H              14.666              3.826               -24.367             
H              15.626              2.544               -24.054             
H              18.195              3.09                -23.886             
H              15.189              5.864               -23.355             
H              19.708              4.504               -22.717             
H              16.694              7.274               -22.168             
H              20.037              6.906               -22.196             
N              16.859              1.063               -26.039             
C              17.952              0.124               -26.266             
C              18.472              0.22                -27.695             
O              19.687              0.189               -27.927             
C              17.496              -1.304              -25.968             
C              17.136              -1.579              -24.518             
C              16.85               -3.062              -24.313             
C              15.825              -3.301              -23.214             
N              16.314              -2.881              -21.873             
H              15.913              0.792               -25.745             
H              18.706              0.342               -25.633             
H              16.69               -1.499              -26.534             
H              18.236              -1.929              -26.232             
H              17.899              -1.315              -23.935             
H              16.323              -1.058              -24.277             
H              16.497              -3.441              -25.165             
H              17.698              -3.521              -24.061             
H              14.987              -2.788              -23.435             
H              15.598              -4.282              -23.19              
H              17.313              -2.923              -21.856             
H              16.016              -1.945              -21.689             
H              15.941              -3.494              -21.177             
N              17.566              0.329               -28.671             
C              17.99               0.424               -30.064             
C              16.772              0.399               -30.988             
S              15.998              -1.227              -31.151             
H              16.585              0.339               -28.362             
H              18.569              -0.374              -30.273             
H              16.094              1.034               -30.625             
H              17.064              0.699               -31.894             
H              16.605              -1.835              -31.664             
H              18.5817             1.3274              -30.2349            
H              15.7034             9.15124             -26.0024            
