319
6.xyz
C              18.814              1.682               -30.302             
O              19.769              1.669               -31.088             
N              18.464              2.781               -29.63              
C              19.196              4.028               -29.82              
C              20.65               3.89                -29.385             
O              21.558              4.372               -30.072             
C              18.513              5.16                -29.053             
H              17.664              2.671               -28.993             
H              19.176              4.27                -30.799             
H              17.858              4.773               -28.406             
H              19.202              5.687               -28.558             
H              18.035              5.755               -29.697             
N              20.896              3.238               -28.247             
C              22.267              3.114               -27.762             
C              23.086              2.174               -28.641             
O              24.248              2.465               -28.951             
C              22.273              2.637               -26.311             
C              22.34               3.786               -25.318             
H              20.075              2.852               -27.77              
H              22.691              4.026               -27.831             
H              21.437              2.123               -26.143             
H              23.068              2.053               -26.173             
O              22.767              4.892               -25.654             
N              21.926              3.524               -24.086             
H              21.598              2.607               -23.852             
H              21.94               4.24                -23.387             
N              22.507              1.041               -29.045             
C              23.204              0.135               -29.955             
C              23.567              0.86                -31.245             
O              24.714              0.817               -31.705             
C              22.345              -1.11               -30.24              
C              22.205              -1.965              -28.979             
C              22.952              -1.924              -31.382             
C              21.077              -2.975              -29.05              
H              21.563              0.871               -28.672             
H              24.068              -0.104              -29.507             
H              21.437              -0.803              -30.506             
H              23.064              -2.449              -28.828             
H              22.04               -1.356              -28.205             
H              22.361              -2.702              -31.584             
H              23.034              -1.347              -32.192             
H              23.855              -2.251              -31.112             
H              21.238              -3.596              -29.816             
H              21.045              -3.494              -28.198             
H              20.212              -2.494              -29.183             
N              22.592              1.542               -31.847             
C              22.835              2.206               -33.123             
C              23.822              3.355               -32.967             
O              24.651              3.594               -33.852             
C              21.514              2.705               -33.708             
C              21.557              3.131               -35.177             
C              21.841              1.929               -36.075             
C              20.259              3.812               -35.58              
H              21.691              1.556               -31.35              
H              23.227              1.535               -33.764             
H              20.848              1.97                -33.632             
H              21.223              3.493               -33.178             
H              22.278              3.811               -35.298             
H              21.12               1.248               -35.955             
H              21.865              2.226               -37.029             
H              22.723              1.53                -35.826             
H              20.117              4.625               -35.013             
H              20.307              4.083               -36.543             
H              19.494              3.179               -35.451             
N              23.744              4.079               -31.848             
C              24.694              5.155               -31.582             
C              26.126              4.633               -31.59              
O              27.012              5.231               -32.211             
C              24.362              5.812               -30.241             
C              25.223              7.014               -29.887             
C              24.836              7.626               -28.548             
O              24.334              6.887               -27.674             
O              25.024              8.848               -28.371             
H              22.976              3.817               -31.21              
H              24.595              5.874               -32.28              
H              23.424              6.119               -30.282             
H              24.491              5.134               -29.535             
H              26.155              6.718               -29.817             
H              25.094              7.702               -30.573             
N              26.375              3.52                -30.894             
C              27.703              2.915               -30.906             
C              28.164              2.649               -32.332             
O              29.236              3.095               -32.754             
C              27.703              1.607               -30.114             
C              27.717              1.754               -28.611             
C              28.156              0.449               -27.971             
C              27.639              0.301               -26.555             
N              28.226              -0.902              -25.908             
H              25.573              3.143               -30.368             
H              28.353              3.548               -30.468             
H              26.882              1.088               -30.375             
H              28.514              1.079               -30.39              
H              28.359              2.47                -28.355             
H              26.803              1.978               -28.291             
H              27.808              -0.311              -28.519             
H              29.154              0.42                -27.951             
H              27.889              1.113               -26.029             
H              26.644              0.21                -26.577             
H              28.83               -0.618              -25.163             
H              27.492              -1.475              -25.543             
H              28.75               -1.42               -26.584             
N              27.359              1.891               -33.082             
C              27.674              1.596               -34.475             
C              27.982              2.873               -35.245             
O              28.973              2.95                -35.98              
C              26.501              0.838               -35.103             
C              26.671              0.542               -36.562             
C              27.356              -0.587              -36.978             
C              26.131              1.384               -37.519             
C              27.507              -0.866              -38.324             
C              26.28               1.112               -38.865             
C              26.97               -0.014              -39.268             
H              26.514              1.542               -32.596             
H              28.516              1.046               -34.476             
H              26.407              -0.023              -34.622             
H              25.69               1.396               -34.994             
H              27.745              -1.209              -36.302             
H              25.625              2.2                 -37.231             
H              28.011              -1.692              -38.608             
H              25.882              1.744               -39.553             
H              27.082              -0.216              -40.243             
N              27.148              3.899               -35.069             
C              27.358              5.155               -35.779             
C              28.735              5.734               -35.48              
O              29.512              6.024               -36.397             
C              26.264              6.152               -35.405             
C              26.558              7.557               -35.836             
C              26.748              7.857               -37.173             
C              26.638              8.578               -34.907             
C              27.019              9.149               -37.573             
C              26.906              9.872               -35.302             
C              27.096              10.158              -36.635             
H              26.373              3.729               -34.412             
H              27.339              4.943               -36.764             
H              25.428              5.864               -35.846             
H              26.172              6.146               -34.421             
H              26.688              7.133               -37.858             
H              26.499              8.374               -33.935             
H              27.161              9.349               -38.552             
H              26.963              10.608              -34.604             
H              27.29               11.097              -36.929             
N              29.055              5.918               -34.197             
C              30.341              6.508               -33.843             
C              31.494              5.675               -34.389             
O              32.521              6.221               -34.806             
C              30.445              6.669               -32.326             
C              29.682              7.853               -31.787             
C              29.884              9.122               -32.308             
C              28.758              7.695               -30.767             
C              29.184              10.209              -31.819             
C              28.056              8.781               -30.275             
C              28.269              10.038              -30.802             
H              28.347              5.62                -33.517             
H              30.389              7.404               -34.299             
H              30.076              5.854               -31.907             
H              31.398              6.793               -32.098             
H              30.542              9.255               -33.047             
H              28.596              6.785               -30.383             
H              29.35               11.124              -32.211             
H              27.386              8.645               -29.524             
H              27.761              10.827              -30.449             
N              31.343              4.349               -34.406             
C              32.369              3.505               -35.007             
C              32.519              3.811               -36.492             
O              33.639              3.941               -37                 
C              32.026              2.031               -34.788             
O              32.061              1.703               -33.41              
H              30.48               3.996               -33.978             
H              33.246              3.711               -34.559             
H              31.112              1.858               -35.14              
H              32.692              1.472               -35.271             
H              31.252              2.076               -32.958             
N              31.398              3.943               -37.203             
C              31.458              4.259               -38.626             
C              32.092              5.623               -38.861             
O              32.834              5.812               -39.832             
C              30.055              4.21                -39.229             
C              29.424              2.829               -39.217             
C              30.159              1.87                -40.139             
C              30.65               0.642               -39.392             
N              31.146              -0.405              -40.325             
H              30.524              3.807               -36.677             
H              32.015              3.559               -39.092             
H              29.469              4.828               -38.707             
H              30.112              4.522               -40.176             
H              29.451              2.465               -38.285             
H              28.472              2.901               -39.517             
H              29.538              1.576               -40.859             
H              30.945              2.338               -40.532             
H              31.393              0.912               -38.775             
H              29.895              0.268               -38.848             
H              32.125              -0.546              -40.176             
H              30.656              -1.26               -40.156             
H              30.99               -0.111              -41.268             
N              31.807              6.592               -37.988             
C              32.42               7.91                -38.119             
C              33.935              7.803               -38.003             
O              34.678              8.511               -38.693             
C              31.841              8.878               -37.069             
C              30.386              9.23                -37.397             
C              32.69               10.138              -36.977             
C              30.216              10.092              -38.635             
H              31.143              6.334               -37.245             
H              32.225              8.22                -39.052             
H              31.855              8.418               -36.187             
H              29.876              8.379               -37.523             
H              29.998              9.717               -36.613             
H              32.331              10.73               -36.258             
H              33.633              9.89                -36.763             
H              32.664              10.622              -37.85              
H              30.587              9.609               -39.426             
H              29.245              10.275              -38.778             
H              30.705              10.953              -38.506             
N              34.418              6.916               -37.13              
C              35.858              6.777               -36.937             
C              36.509              6.092               -38.133             
O              37.548              6.544               -38.629             
C              36.141              6.002               -35.648             
C              37.622              5.863               -35.304             
C              38.311              7.218               -35.201             
C              39.764              7.081               -34.767             
N              39.896              6.691               -33.335             
H              33.711              6.363               -36.627             
H              36.263              7.694               -36.831             
H              35.689              6.475               -34.893             
H              35.756              5.084               -35.744             
H              37.708              5.389               -34.426             
H              38.072              5.324               -36.017             
H              38.287              7.659               -36.093             
H              37.831              7.773               -34.529             
H              40.209              6.385               -35.34              
H              40.231              7.96                -34.913             
H              39.879              7.512               -32.766             
H              39.136              6.093               -33.084             
H              40.761              6.208               -33.202             
N              35.912              4.996               -38.612             
C              36.47               4.284               -39.757             
C              36.721              5.214               -40.935             
O              37.689              5.027               -41.681             
C              35.53               3.156               -40.189             
C              35.338              2.059               -39.157             
C              34.517              0.9                 -39.69              
O              34.076              0.058               -38.879             
O              34.312              0.831               -40.921             
H              35.054              4.712               -38.117             
H              37.338              3.84                -39.488             
H              34.646              3.557               -40.368             
H              35.912              2.742               -40.999             
H              36.221              1.708               -38.91              
H              34.855              2.436               -38.389             
N              35.867              6.216               -41.121             
C              35.971              7.127               -42.251             
C              36.898              8.306               -41.988             
O              37.109              9.121               -42.892             
C              34.581              7.651               -42.628             
H              35.124              6.29                -40.393             
H              36.327              6.612               -43.052             
H              34.02               6.892               -42.953             
H              34.156              8.063               -41.825             
H              34.672              8.335               -43.349             
N              37.455              8.42                -40.784             
C              38.255              9.582               -40.453             
C              37.531              10.894              -40.634             
O              38.173              11.945              -40.71              
H              37.271              7.637               -40.139             
H              38.574              9.505               -39.485             
H              39.1                9.582               -41.028             
N              36.202              10.862              -40.705             
C              35.422              12.07               -40.934             
C              35.718              13.098              -39.852             
O              35.561              12.822              -38.658             
C              33.934              11.73               -40.96              
C              32.983              12.878              -41.301             
C              33.224              13.378              -42.717             
C              31.538              12.439              -41.119             
H              35.782              9.921               -40.585             
H              35.684              12.459              -41.822             
H              33.794              11.017              -41.643             
H              33.68               11.392              -40.058             
H              33.133              13.627              -40.654             
H              33.073              12.632              -43.366             
H              32.593              14.127              -42.919             
H              34.166              13.705              -42.801             
H              31.389              12.164              -40.168             
H              30.926              13.198              -41.345             
H              31.344              11.665              -41.723             
N              36.145              14.289              -40.276             
C              36.555              15.345              -39.359             
C              36.158              16.689              -39.949             
O              35.924              16.825              -41.153             
C              38.076              15.293              -39.077             
C              38.459              16.304              -37.994             
C              38.864              15.548              -40.357             
C              39.72               15.936              -37.242             
H              36.159              14.395              -41.314             
H              36.013              15.224              -38.53              
H              38.291              14.382              -38.741             
H              38.586              17.195              -38.424             
H              37.704              16.365              -37.343             
H              39.841              15.464              -40.168             
H              38.599              14.879              -41.049             
H              38.667              16.468              -40.691             
H              40.484              15.88               -37.884             
H              39.911              16.635              -36.554             
H              39.593              15.052              -36.795             
N              36.075              17.691              -39.08              
C              35.689              19.037              -39.482             
C              36.776              19.691              -40.329             
O              37.226              19.125              -41.326             
C              35.399              19.892              -38.247             
C              34.189              19.406              -37.474             
O              33.077              19.41               -38.044             
O              34.35               19.007              -36.301             
O              37.339              20.778              -40.189             
H              36.308              17.432              -38.097             
H              34.872              18.953              -40.066             
H              36.194              19.854              -37.654             
H              35.233              20.823              -38.549             
H              18.2389             0.803933            -30.1359            
