244
0.xyz
N              -18.362             -33.739             -8.461              
C              -17.047             -34.037             -7.907              
C              -16.867             -33.405             -6.505              
O              -16.317             -32.305             -6.376              
C              -15.969             -33.525             -8.855              
C              -14.611             -34.099             -8.59               
O              -14.313             -34.479             -7.424              
O              -13.818             -34.107             -9.588              
H              -18.451             -32.754             -8.622              
H              -16.989             -35.034             -7.779              
H              -16.246             -33.76              -9.787              
H              -15.928             -32.53              -8.761              
H              -18.486             -34.223             -9.33               
H              -19.078             -34.03              -7.822              
N              -17.352             -34.075             -5.446              
C              -17.373             -33.446             -4.117              
C              -16.001             -33.069             -3.594              
O              -15.829             -32.025             -2.953              
C              -18.031             -34.497             -3.224              
C              -18.823             -35.294             -4.158              
C              -18.121             -35.337             -5.457              
H              -17.993             -32.635             -4.124              
H              -17.331             -35.049             -2.763              
H              -18.604             -34.054             -2.53               
H              -18.968             -36.241             -3.792              
H              -19.762             -34.896             -4.266              
H              -17.499             -36.116             -5.527              
H              -18.755             -35.346             -6.231              
N              -14.991             -33.888             -3.853              
C              -13.662             -33.551             -3.38               
C              -13.093             -32.33              -4.086              
O              -12.398             -31.51              -3.451              
C              -12.713             -34.72              -3.597              
C              -13.022             -35.92              -2.707              
O              -13.794             -35.797             -1.735              
O              -12.458             -37.005             -3                  
H              -15.223             -34.731             -4.387              
H              -13.742             -33.313             -2.399              
H              -12.784             -35.008             -4.547              
H              -11.787             -34.413             -3.4                
N              -13.269             -32.234             -5.412              
C              -12.824             -31.04              -6.129              
C              -13.506             -29.808             -5.575              
O              -12.873             -28.742             -5.419              
C              -13.097             -31.182             -7.635              
C              -12.751             -29.933             -8.463              
C              -13.286             -29.962             -9.881              
H              -13.724             -33.04              -5.855              
H              -11.835             -30.944             -5.98               
H              -12.554             -31.944             -7.99               
H              -14.07              -31.377             -7.769              
H              -13.129             -29.131             -7.992              
H              -11.751             -29.847             -8.496              
O              -14.391             -30.448             -10.124             
N              -12.549             -29.422             -10.817             
H              -12.837             -29.417             -11.793             
H              -11.653             -28.99              -10.559             
N              -14.825             -29.911             -5.309              
C              -15.559             -28.757             -4.838              
C              -15.025             -28.33              -3.482              
O              -14.731             -27.157             -3.256              
C              -17.053             -29.057             -4.75               
C              -17.872             -27.858             -4.19               
C              -17.803             -26.666             -5.069              
C              -19.325             -28.284             -3.987              
H              -15.226             -30.842             -5.468              
H              -15.426             -28                 -5.483              
H              -17.391             -29.235             -5.652              
H              -17.187             -29.806             -4.135              
H              -17.509             -27.646             -3.272              
H              -18.168             -26.879             -5.983              
H              -18.341             -25.909             -4.681              
H              -16.85              -26.357             -5.172              
H              -19.36              -29.044             -3.339              
H              -19.85              -27.513             -3.627              
H              -19.711             -28.572             -4.863              
N              -14.848             -29.307             -2.595              
C              -14.41              -29.008             -1.246              
C              -13.057             -28.336             -1.242              
O              -12.859             -27.307             -0.591              
C              -14.367             -30.29              -0.451              
C              -13.878             -30.105             0.976               
C              -14.756             -29.779             1.99                
C              -12.546             -30.21              1.314               
C              -14.316             -29.63              3.313               
C              -12.081             -30.05              2.646               
C              -12.979             -29.782             3.649               
O              -12.594             -29.651             4.988               
H              -15.044             -30.258             -2.945              
H              -15.079             -28.376             -0.828              
H              -15.285             -30.676             -0.41               
H              -13.749             -30.93              -0.902              
H              -15.729             -29.643             1.79                
H              -11.862             -30.408             0.603               
H              -14.991             -29.409             4.032               
H              -11.106             -30.135             2.831               
H              -12.963             -28.797             5.341               
N              -12.102             -28.928             -1.975              
C              -10.749             -28.352             -1.96               
C              -10.728             -26.974             -2.633              
O              -10.003             -26.073             -2.191              
C              -9.744              -29.32              -2.582              
O              -10.12              -29.666             -3.874              
C              -9.615              -30.542             -1.817              
H              -12.379             -29.747             -2.5                
H              -10.463             -28.239             -1.003              
H              -8.823              -28.855             -2.614              
H              -10.502             -30.832             -1.417              
H              -9.281              -31.312             -2.389              
H              -8.961              -30.438             -1.047              
H              -10.887             -30.328             -3.873              
N              -11.498             -26.797             -3.71               
C              -11.56              -25.501             -4.361              
C              -12.099             -24.451             -3.412              
O              -11.556             -23.345             -3.323              
C              -12.432             -25.587             -5.605              
O              -11.83              -26.479             -6.562              
C              -12.565             -24.246             -6.275              
H              -12.018             -27.63              -4.019              
H              -10.628             -25.235             -4.635              
H              -13.345             -25.972             -5.353              
H              -12.374             -24.327             -7.259              
H              -13.497             -23.889             -6.157              
H              -11.916             -23.591             -5.874              
H              -12.06              -27.431             -6.34               
N              -13.209             -24.762             -2.732              
C              -13.783             -23.802             -1.789              
C              -12.836             -23.54              -0.609              
O              -12.68              -22.394             -0.169              
C              -15.15              -24.295             -1.272              
C              -16.249             -24.402             -2.315              
C              -17.477             -24.923             -1.622              
C              -16.51              -23.13              -3.065              
H              -13.6               -25.69              -2.924              
H              -13.934             -22.93              -2.269              
H              -15.011             -25.199             -0.881              
H              -15.452             -23.656             -0.574              
H              -15.966             -25.035             -3.022              
H              -17.752             -24.293             -0.891              
H              -18.231             -25.009             -2.278              
H              -17.29              -25.824             -1.222              
H              -15.68              -22.838             -3.549              
H              -17.244             -23.269             -3.736              
H              -16.786             -22.404             -2.428              
N              -12.19              -24.586             -0.113              
C              -11.209             -24.445             0.95                
C              -10.098             -23.494             0.515               
O              -9.707              -22.583             1.26                
C              -10.66              -25.807             1.319               
C              -9.644              -25.77              2.474               
C              -9.209              -27.154             2.918               
C              -8.163              -27.027             4.053               
N              -7.783              -28.35              4.582               
H              -12.442             -25.499             -0.543              
H              -11.657             -24.063             1.764               
H              -11.414             -26.395             1.599               
H              -10.201             -26.196             0.525               
H              -8.838              -25.253             2.171               
H              -10.063             -25.291             3.251               
H              -9.984              -27.645             3.273               
H              -8.784              -27.625             2.166               
H              -7.359              -26.563             3.682               
H              -8.562              -26.469             4.781               
H              -7.072              -28.244             5.279               
H              -8.583              -28.793             4.992               
H              -7.433              -28.924             3.839               
N              -9.564              -23.72              -0.674              
C              -8.463              -22.88              -1.163              
C              -8.91               -21.456             -1.377              
O              -8.144              -20.509             -1.13               
C              -7.879              -23.479             -2.451              
C              -7.124              -24.763             -2.187              
H              -9.966              -24.501             -1.207              
H              -7.761              -22.873             -0.439              
H              -8.629              -23.67              -3.073              
H              -7.256              -22.815             -2.847              
O              -6.783              -25.063             -1.027              
N              -6.841              -25.524             -3.237              
H              -7.126              -25.226             -4.153              
H              -6.35               -26.383             -3.121              
N              -10.125             -21.252             -1.876              
C              -10.653             -19.925             -2.006              
C              -10.825             -19.236             -0.651              
O              -10.441             -18.086             -0.481              
C              -11.987             -20.014             -2.75               
C              -12.749             -18.698             -2.857              
C              -11.92              -17.627             -3.513              
C              -14.041             -18.96              -3.584              
H              -10.631             -22.115             -2.15               
H              -10.014             -19.365             -2.559              
H              -11.801             -20.328             -3.672              
H              -12.564             -20.656             -2.265              
H              -13.014             -18.402             -1.932              
H              -11.661             -17.913             -4.439              
H              -12.445             -16.774             -3.57               
H              -11.087             -17.462             -2.978              
H              -14.589             -19.631             -3.078              
H              -14.565             -18.109             -3.669              
H              -13.851             -19.319             -4.501              
N              -11.496             -19.888             0.29                
C              -11.757             -19.271             1.581               
C              -10.462             -18.888             2.29                
O              -10.366             -17.83              2.913               
C              -12.63              -20.241             2.384               
C              -13.117             -19.738             3.723               
C              -13.945             -18.435             3.534               
C              -13.987             -20.821             4.444               
H              -11.805             -20.84              0.032               
H              -12.297             -18.431             1.435               
H              -13.43              -20.454             1.828               
H              -12.094             -21.066             2.543               
H              -12.342             -19.532             4.313               
H              -14.724             -18.636             2.949               
H              -14.254             -18.123             4.427               
H              -13.364             -17.748             3.11                
H              -13.428             -21.631             4.581               
H              -14.286             -20.452             5.317               
H              -14.769             -21.029             3.867               
N              -9.432              -19.723             2.159               
C              -8.151              -19.364             2.75                
C              -7.622              -18.049             2.207               
O              -7.021              -17.258             2.959               
C              -7.128              -20.469             2.489               
H              -9.615              -20.582             1.639               
H              -8.27               -19.275             3.752               
H              -6.378              -20.103             1.941               
H              -6.773              -20.804             3.36                
H              -7.568              -21.218             1.996               
N              -7.756              -17.821             0.897               
C              -7.299              -16.575             0.309               
C              -7.304              -16.696             -1.197              
C              -6.362              -17.777             -1.754              
C              -6.61               -17.975             -3.217              
H              -8.199              -18.587             0.365               
H              -6.346              -16.417             0.612               
H              -8.232              -16.918             -1.511              
H              -7.026              -15.82              -1.604              
H              -5.43               -17.475             -1.614              
H              -6.541              -18.621             -1.269              
O              -6.243              -17.131             -4.022              
N              -7.253              -19.064             -3.581              
H              -7.471              -19.261             -4.558              
H              -7.542              -19.733             -2.859              
H              -7.89719            -15.7219            0.636463            
