296
3.xyz
C              -27.63              -13.84              8.388               
O              -26.938             -13.584             7.396               
N              -27.194             -13.616             9.625               
C              -25.843             -13.147             9.872               
C              -24.856             -14.174             9.382               
O              -25.066             -15.38              9.516               
C              -25.819             -13.004             11.409              
C              -26.855             -13.964             11.879              
C              -27.92              -13.854             10.883              
H              -25.686             -12.256             9.436               
H              -24.914             -13.241             11.765              
H              -26.044             -12.066             11.674              
H              -26.472             -14.893             11.92               
H              -27.171             -13.708             12.798              
H              -28.467             -14.696             10.809              
H              -28.545             -13.086             11.069              
N              -23.73              -13.698             8.86                
C              -22.698             -14.609             8.353               
C              -21.365             -13.897             8.378               
O              -21.298             -12.669             8.289               
C              -23.082             -15.096             6.928               
C              -22.245             -16.264             6.443               
C              -23.115             -13.973             5.875               
C              -22.319             -17.528             7.225               
H              -23.647             -12.672             8.842               
H              -22.643             -15.357             9.011               
H              -24.045             -15.387             6.962               
H              -22.505             -16.456             5.477               
H              -21.274             -15.957             6.409               
H              -23.51              -14.329             5.033               
H              -23.67              -13.221             6.219               
H              -22.185             -13.659             5.706               
H              -23.262             -17.87              7.237               
H              -21.727             -18.224             6.811               
H              -22.02              -17.366             8.169               
N              -20.291             -14.671             8.464               
C              -18.943             -14.184             8.656               
C              -18.019             -15.322             8.238               
O              -18.456             -16.444             8.047               
C              -18.693             -13.822             10.097              
C              -18.835             -15.038             10.973              
O              -19.985             -15.446             11.351              
O              -17.79              -15.706             11.198              
H              -20.514             -15.705             8.377               
H              -18.795             -13.442             8.016               
H              -17.772             -13.475             10.179              
H              -19.36              -13.15              10.373              
N              -16.732             -15.023             8.138               
C              -15.818             -16.012             7.568               
C              -15.479             -17.177             8.479               
O              -15.111             -18.239             7.982               
C              -14.562             -15.299             7.099               
C              -14.814             -14.254             6.04                
C              -13.568             -13.371             5.718               
C              -15.295             -14.838             4.719               
H              -16.452             -14.102             8.472               
H              -16.247             -16.385             6.716               
H              -14.157             -14.847             7.881               
H              -13.95              -15.976             6.719               
H              -15.561             -13.639             6.336               
H              -12.838             -13.963             5.394               
H              -13.82              -12.714             5.016               
H              -13.292             -12.901             6.549               
H              -16.153             -15.332             4.864               
H              -15.444             -14.099             4.061               
H              -14.605             -15.468             4.361               
N              -15.58              -16.991             9.798               
C              -15.395             -18.101             10.721              
C              -16.555             -19.068             10.613              
O              -16.353             -20.273             10.49               
C              -15.228             -17.578             12.132              
C              -15.11              -18.706             13.174              
C              -14.837             -18.144             14.605              
C              -14.695             -19.247             15.682              
N              -16.019             -19.715             16.118              
H              -15.793             -16.025             10.089              
H              -14.545             -18.583             10.484              
H              -14.399             -17.035             12.18               
H              -16.02              -17.029             12.369              
H              -15.963             -19.218             13.2                
H              -14.355             -19.304             12.927              
H              -13.99              -17.621             14.577              
H              -15.598             -17.554             14.858              
H              -14.177             -20.001             15.285              
H              -14.195             -18.862             16.454              
H              -16.419             -19.056             16.759              
H              -16.625             -19.81              15.325              
H              -15.933             -20.604             16.573              
N              -17.791             -18.548             10.58               
C              -18.93              -19.42              10.378              
C              -18.857             -20.119             9.019               
O              -19.171             -21.301             8.903               
C              -20.229             -18.609             10.536              
O              -20.246             -18.009             11.845              
C              -21.433             -19.531             10.303              
H              -17.843             -17.533             10.705              
H              -18.928             -20.13              11.094              
H              -20.238             -17.862             9.847               
H              -21.116             -20.411             9.95                
H              -21.916             -19.673             11.167              
H              -22.053             -19.11              9.64                
H              -20.117             -17.016             11.772              
N              -18.375             -19.416             7.981               
C              -18.22              -20.065             6.673               
C              -17.175             -21.175             6.736               
O              -17.334             -22.21              6.087               
C              -17.869             -19.039             5.644               
C              -19.036             -18.154             5.213               
S              -18.682             -17.153             3.731               
C              -18.549             -18.504             2.527               
H              -18.14              -18.442             8.176               
H              -19.102             -20.48              6.426               
H              -17.139             -18.432             5.998               
H              -17.507             -19.495             4.814               
H              -19.856             -18.751             5.052               
H              -19.293             -17.547             6                   
H              -18.41              -19.362             3.016               
H              -19.391             -18.548             1.995               
H              -17.774             -18.326             1.925               
N              -16.138             -20.966             7.543               
C              -15.117             -22.001             7.708               
C              -15.699             -23.242             8.397               
O              -15.434             -24.39              7.978               
C              -13.96              -21.453             8.522               
O              -13.358             -20.357             7.86                
C              -12.867             -22.494             8.751               
H              -16.118             -20.056             8.018               
H              -14.787             -22.274             6.798               
H              -14.315             -21.124             9.43                
H              -13.248             -23.414             8.64                
H              -12.129             -22.36              8.087               
H              -12.499             -22.398             9.678               
H              -13.964             -19.551             7.877               
N              -16.533             -23.032             9.415               
C              -17.205             -24.122             10.108              
C              -18.167             -24.851             9.195               
O              -18.226             -26.087             9.181               
C              -17.883             -23.529             11.348              
C              -16.867             -23.055             12.382              
C              -17.409             -22.165             13.451              
O              -18.587             -21.752             13.393              
O              -16.607             -21.81              14.339              
H              -16.66              -22.028             9.668               
H              -16.516             -24.771             10.463              
H              -18.4               -22.753             11.063              
H              -18.42              -24.23              11.76               
H              -16.483             -23.864             12.818              
H              -16.154             -22.556             11.898              
N              -18.917             -24.103             8.391               
C              -19.831             -24.693             7.431               
C              -19.065             -25.521             6.405               
O              -19.457             -26.614             6.055               
C              -20.689             -23.581             6.798               
C              -21.791             -23.099             7.737               
C              -22.625             -22.008             7.093               
N              -23.728             -21.693             8.024               
C              -24.851             -21.073             7.664               
N              -25.011             -20.581             6.429               
N              -25.781             -20.903             8.602               
H              -18.791             -23.077             8.511               
H              -20.472             -25.298             7.916               
H              -20.1               -22.817             6.593               
H              -21.113             -23.944             5.985               
H              -22.39              -23.862             7.96                
H              -21.38              -22.731             8.565               
H              -22.068             -21.215             6.976               
H              -22.998             -22.35              6.258               
H              -23.619             -21.964             8.982               
H              -24.285             -20.696             5.754               
H              -25.854             -20.105             6.19                
H              -25.656             -21.241             9.528               
H              -26.636             -20.419             8.365               
N              -17.999             -24.966             5.849               
C              -17.196             -25.7               4.899               
C              -16.745             -27.03              5.5                 
O              -16.904             -28.114             4.904               
C              -15.984             -24.858             4.48                
C              -14.967             -25.567             3.57                
C              -15.566             -25.813             2.201               
C              -13.671             -24.81              3.467               
H              -17.803             -23.995             6.148               
H              -17.75              -25.898             4.084               
H              -16.319             -24.065             3.986               
H              -15.503             -24.583             5.302               
H              -14.716             -26.438             3.99                
H              -15.822             -24.94              1.782               
H              -14.896             -26.275             1.617               
H              -16.381             -26.389             2.287               
H              -13.256             -24.715             4.376               
H              -13.033             -25.301             2.867               
H              -13.837             -23.896             3.088               
N              -16.153             -26.956             6.672               
C              -15.576             -28.154             7.267               
C              -16.611             -29.182             7.67                
O              -16.276             -30.382             7.736               
C              -14.713             -27.779             8.462               
C              -13.42              -27.061             8.015               
C              -12.721             -26.293             9.084               
N              -12.348             -27.142             10.228              
C              -11.252             -27.891             10.286              
N              -10.427             -27.982             9.253               
N              -11.006             -28.556             11.432              
H              -16.132             -26.028             7.112               
H              -14.943             -28.577             6.591               
H              -15.212             -27.158             9.037               
H              -14.448             -28.597             8.936               
H              -12.787             -27.758             7.642               
H              -13.657             -26.431             7.259               
H              -11.889             -25.889             8.705               
H              -13.326             -25.568             9.412               
H              -12.971             -27.152             11.02               
H              -10.608             -27.469             8.414               
H              -9.615              -28.568             9.311               
H              -11.617             -28.468             12.208              
H              -10.195             -29.142             11.491              
N              -17.843             -28.766             7.957               
C              -18.904             -29.721             8.253               
C              -19.679             -30.153             7.017               
O              -20.701             -30.843             7.148               
C              -19.84              -29.158             9.304               
O              -20.514             -28.014             8.817               
H              -17.974             -27.742             7.951               
H              -18.475             -30.549             8.656               
H              -20.514             -29.851             9.546               
H              -19.31              -28.902             10.108              
H              -19.902             -27.224             8.854               
N              -19.165             -29.829             5.819               
C              -19.729             -30.225             4.542               
C              -21.132             -29.669             4.335               
O              -21.961             -30.291             3.677               
C              -19.726             -31.758             4.404               
C              -18.338             -32.407             4.556               
C              -17.329             -31.7               3.794               
N              -15.987             -32.325             3.85                
C              -15.434             -33.045             2.876               
N              -16.071             -33.252             1.709               
N              -14.168             -33.482             3.002               
H              -18.286             -29.242             5.896               
H              -19.134             -29.878             3.799               
H              -20.316             -32.136             5.109               
H              -20.072             -31.991             3.502               
H              -18.104             -32.404             5.532               
H              -18.409             -33.357             4.242               
H              -17.599             -31.652             2.822               
H              -17.236             -30.754             4.137               
H              -15.454             -32.19              4.698               
H              -16.967             -32.842             1.562               
H              -15.642             -33.81              1.006               
H              -13.653             -33.24              3.824               
H              -13.761             -34.033             2.286               
N              -21.344             -28.459             4.836               
C              -22.551             -27.712             4.53                
C              -22.611             -27.31              3.066               
O              -23.706             -27.305             2.474               
C              -22.608             -26.476             5.425               
C              -23.86              -25.633             5.335               
C              -23.975             -24.636             4.412               
C              -24.866             -25.805             6.247               
C              -25.151             -23.83              4.369               
C              -26.028             -25.036             6.217               
C              -26.15              -24.068             5.279               
O              -27.288             -23.293             5.256               
H              -20.587             -28.103             5.452               
H              -23.349             -28.302             4.726               
H              -22.504             -26.778             6.382               
H              -21.821             -25.887             5.196               
H              -23.254             -24.445             3.754               
H              -24.776             -26.506             6.965               
H              -25.223             -23.117             3.684               
H              -26.751             -25.209             6.886               
H              -27.079             -22.394             5.635               
N              -21.471             -26.953             2.452               
C              -21.457             -26.385             1.104               
C              -21.396             -27.492             0.07                
O              -20.389             -27.718             -0.588              
C              -20.285             -25.401             0.944               
C              -20.405             -24.229             1.832               
C              -21.563             -23.455             1.882               
C              -19.341             -23.812             2.666               
C              -21.658             -22.378             2.696               
C              -19.44              -22.717             3.452               
C              -20.599             -21.992             3.489               
O              -20.673             -20.941             4.345               
H              -20.613             -27.115             3.015               
H              -22.311             -25.873             0.971               
H              -19.449             -25.895             1.157               
H              -20.276             -25.098             -0.003              
H              -22.34              -23.715             1.292               
H              -18.5               -24.363             2.656               
H              -22.52              -21.838             2.733               
H              -18.654             -22.423             4.022               
H              -21.603             -20.569             4.342               
N              -22.531             -28.209             -0.036              
H              -23.297             -27.905             0.578               
H              -22.5934            -28.9889            -0.686163           
H              -28.6442            -14.1674            8.30285             
