264
6.xyz
C              -13.877             -8.216              -1.389              
O              -13.449             -9.213              -1.967              
N              -15.024             -7.64               -1.722              
C              -15.827             -8.091              -2.834              
C              -15.06              -8.053              -4.14               
O              -15.142             -9.013              -4.938              
C              -17.074             -7.232              -2.879              
C              -18.03              -7.606              -3.987              
C              -19.168             -6.599              -4.087              
O              -18.887             -5.4                -4.303              
O              -20.349             -6.991              -4.057              
H              -15.292             -6.834              -1.109              
H              -16.15              -9.037              -2.662              
H              -17.55              -7.343              -2.023              
H              -16.795             -6.299              -3.026              
H              -17.549             -7.588              -4.836              
H              -18.426             -8.474              -3.782              
N              -14.381             -6.943              -4.399              
C              -13.588             -6.824              -5.623              
C              -12.586             -7.968              -5.696              
O              -12.473             -8.668              -6.719              
C              -12.924             -5.472              -5.671              
C              -12.068             -5.285              -6.92               
C              -11.627             -3.814              -7.006              
C              -10.588             -3.636              -8.073              
N              -10.058             -2.248              -8.092              
H              -14.457             -6.199              -3.69               
H              -14.201             -6.879              -6.413              
H              -13.624             -4.767              -5.672              
H              -12.334             -5.374              -4.877              
H              -11.263             -5.853              -6.854              
H              -12.602             -5.503              -7.72               
H              -12.423             -3.265              -7.225              
H              -11.248             -3.553              -6.128              
H              -9.828              -4.272              -7.908              
H              -10.991             -3.843              -8.97               
H              -9.082              -2.267              -8.31               
H              -10.544             -1.716              -8.785              
H              -10.191             -1.829              -7.194              
N              -11.873             -8.179              -4.6                
C              -10.907             -9.278              -4.546              
C              -11.563             -10.618             -4.783              
O              -11.077             -11.434             -5.587              
C              -10.187             -9.253              -3.219              
C              -9.201              -10.376             -3.026              
C              -8.053              -10.46              -3.795              
C              -9.434              -11.375             -2.085              
C              -7.155              -11.533             -3.577              
C              -8.499              -12.414             -1.869              
C              -7.4                -12.475             -2.624              
H              -12.048             -7.531              -3.82               
H              -10.256             -9.127              -5.304              
H              -9.685              -8.399              -3.152              
H              -10.863             -9.321              -2.495              
H              -7.847              -9.795              -4.485              
H              -10.276             -11.366             -1.546              
H              -6.323              -11.575             -4.158              
H              -8.7                -13.088             -1.138              
H              -6.726              -13.229             -2.498              
N              -12.645             -10.929             -4.063              
C              -13.183             -12.269             -4.196              
C              -13.862             -12.501             -5.534              
O              -13.889             -13.651             -5.975              
C              -14.005             -12.696             -2.96               
C              -15.398             -12.107             -2.778              
C              -16.377             -12.225             -3.733              
C              -15.773             -11.637             -1.53               
C              -17.665             -11.732             -3.484              
C              -17.072             -11.204             -1.283              
C              -18.012             -11.243             -2.266              
H              -13.017             -10.199             -3.469              
H              -12.398             -12.91              -4.153              
H              -14.105             -13.695             -2.996              
H              -13.469             -12.455             -2.145              
H              -16.19              -12.658             -4.606              
H              -15.098             -11.608             -0.788              
H              -18.337             -11.751             -4.251              
H              -17.302             -10.856             -0.351              
H              -18.944             -10.918             -2.096              
N              -14.297             -11.463             -6.246              
C              -14.754             -11.714             -7.597              
C              -13.576             -12.007             -8.518              
O              -13.695             -12.839             -9.414              
C              -15.647             -10.607             -8.127              
C              -17.071             -10.709             -7.59               
C              -17.77              -11.9               -7.568              
C              -17.702             -9.621              -7.073              
C              -19.044             -11.999             -7.037              
C              -18.98              -9.717              -6.55               
C              -19.63              -10.886             -6.529              
O              -20.89              -10.994             -5.975              
H              -14.278             -10.56              -5.787              
H              -15.351             -12.525             -7.589              
H              -15.278             -9.733              -7.844              
H              -15.691             -10.674             -9.114              
H              -17.34              -12.732             -7.953              
H              -17.243             -8.728              -7.064              
H              -19.515             -12.883             -7.032              
H              -19.416             -8.875              -6.181              
H              -21.181             -11.948             -6.011              
N              -12.423             -11.343             -8.31               
C              -11.233             -11.754             -9.07               
C              -10.941             -13.226             -8.808              
O              -10.621             -13.976             -9.734              
C              -9.988              -10.947             -8.7                
C              -9.843              -9.611              -9.39               
C              -9.8                -9.515              -10.769             
C              -9.672              -8.457              -8.639              
C              -9.628              -8.266              -11.364             
C              -9.508              -7.222              -9.232              
C              -9.532              -7.133              -10.58              
H              -12.452             -10.593             -7.633              
H              -11.467             -11.67              -10.039             
H              -10.014             -10.779             -7.719              
H              -9.189              -11.495             -8.932              
H              -9.891              -10.318             -11.336             
H              -9.669              -8.526              -7.632              
H              -9.574              -8.203              -12.369             
H              -9.371              -6.404              -8.648              
H              -9.48               -6.23               -11.038             
N              -11.006             -13.648             -7.544              
C              -10.669             -15.029             -7.226              
C              -11.734             -16.011             -7.724              
O              -11.407             -17.1               -8.212              
C              -10.461             -15.204             -5.726              
C              -9.336              -14.426             -5.122              
C              -7.959              -14.641             -5.789              
C              -7.649              -13.54              -6.763              
N              -6.302              -13.758             -7.415              
H              -11.299             -12.948             -6.856              
H              -9.789              -15.263             -7.667              
H              -11.32              -14.941             -5.264              
H              -10.306             -16.187             -5.551              
H              -9.544              -13.432             -5.165              
H              -9.24               -14.666             -4.14               
H              -7.271              -14.654             -5.073              
H              -7.982              -15.51              -6.268              
H              -8.345              -13.516             -7.48               
H              -7.629              -12.661             -6.287              
H              -6.248              -13.194             -8.233              
H              -5.589              -13.498             -6.77               
H              -6.215              -14.721             -7.655              
N              -13.003             -15.631             -7.673              
C              -14.036             -16.53              -8.173              
C              -13.871             -16.726             -9.67               
O              -14.03              -17.863             -10.169             
C              -15.437             -15.984             -7.818              
C              -15.945             -16.161             -6.411              
C              -17.137             -15.241             -6.115              
C              -16.268             -17.591             -6.077              
H              -13.182             -14.707             -7.276              
H              -13.933             -17.42              -7.721              
H              -15.426             -14.997             -8.022              
H              -16.09              -16.428             -8.443              
H              -15.209             -15.953             -5.757              
H              -17.88              -15.452             -6.748              
H              -17.441             -15.39              -5.176              
H              -16.855             -14.291             -6.232              
H              -15.447             -18.16              -6.172              
H              -16.601             -17.657             -5.132              
H              -16.978             -17.937             -6.697              
N              -13.481             -15.696             -10.386             
C              -13.276             -15.817             -11.832             
C              -12.057             -16.664             -12.113             
O              -12.085             -17.515             -13.01              
C              -13.137             -14.451             -12.452             
C              -14.499             -13.729             -12.469             
C              -14.364             -12.294             -12.88              
C              -15.706             -11.598             -13.152             
N              -15.493             -10.204             -13.702             
H              -13.333             -14.815             -9.864              
H              -14.084             -16.258             -12.234             
H              -12.519             -13.909             -11.914             
H              -12.836             -14.544             -13.384             
H              -15.099             -14.21              -13.112             
H              -14.892             -13.782             -11.549             
H              -13.896             -11.78              -12.154             
H              -13.815             -12.235             -13.72              
H              -16.219             -12.132             -13.818             
H              -16.216             -11.533             -12.299             
H              -15.67              -10.217             -14.682             
H              -16.123             -9.582              -13.247             
H              -14.552             -9.932              -13.526             
N              -10.972             -16.423             -11.354             
C              -9.746              -17.222             -11.512             
C              -10.022             -18.704             -11.356             
O              -9.442              -19.529             -12.082             
C              -8.671              -16.753             -10.503             
C              -7.34               -17.549             -10.479             
C              -6.435              -17.198             -9.34               
O              -6.867              -16.438             -8.442              
O              -5.282              -17.657             -9.399              
H              -11.074             -15.656             -10.677             
H              -9.349              -17.042             -12.423             
H              -8.442              -15.814             -10.724             
H              -9.063              -16.818             -9.595              
H              -7.576              -18.506             -10.409             
H              -6.869              -17.354             -11.325             
N              -10.878             -19.068             -10.399             
C              -11.221             -20.421             -10.085             
C              -12.291             -21.043             -10.933             
O              -12.654             -22.189             -10.655             
H              -11.289             -18.234             -9.881              
H              -10.37              -21.007             -10.137             
H              -11.507             -20.477             -9.092              
N              -12.813             -20.318             -11.915             
C              -13.883             -20.86              -12.736             
C              -15.201             -21.027             -12.037             
O              -16.013             -21.877             -12.44              
H              -12.409             -19.379             -12.036             
H              -14.008             -20.255             -13.557             
H              -13.581             -21.767             -13.115             
N              -15.433             -20.286             -10.971             
C              -16.601             -20.503             -10.147             
C              -17.732             -19.575             -10.563             
O              -18.871             -19.805             -10.159             
C              -16.228             -20.334             -8.682              
C              -15.146             -21.28              -8.145              
C              -14.651             -20.912             -6.798              
C              -15.77              -22.666             -8.082              
H              -14.721             -19.553             -10.781             
H              -16.912             -21.453             -10.266             
H              -15.894             -19.404             -8.552              
H              -17.046             -20.483             -8.134              
H              -14.378             -21.286             -8.812              
H              -15.404             -20.923             -6.129              
H              -13.945             -21.561             -6.49               
H              -14.249             -19.988             -6.808              
H              -16.062             -22.944             -8.998              
H              -15.097             -23.321             -7.735              
H              -16.563             -22.649             -7.471              
N              -17.409             -18.512             -11.29              
C              -18.37              -17.697             -12.028             
C              -17.751             -17.395             -13.39              
O              -16.546             -17.559             -13.601             
C              -18.698             -16.408             -11.261             
C              -17.456             -15.556             -11.149             
C              -19.256             -16.747             -9.869              
C              -17.659             -14.219             -10.415             
H              -16.374             -18.299             -11.291             
H              -19.157             -18.275             -12.196             
H              -19.378             -15.908             -11.784             
H              -16.745             -16.069             -10.664             
H              -17.117             -15.349             -12.07              
H              -19.485             -15.901             -9.395              
H              -20.072             -17.308             -9.973              
H              -18.565             -17.247             -9.354              
H              -17.972             -14.408             -9.49               
H              -16.791             -13.733             -10.393             
H              -18.34              -13.686             -10.907             
N              -18.569             -16.918             -14.318             
C              -18.061             -16.584             -15.655             
C              -17.16              -15.341             -15.641             
O              -17.394             -14.443             -14.813             
C              -19.245             -16.377             -16.615             
C              -19.973             -17.686             -16.948             
O              -19.319             -18.736             -16.985             
O              -21.204             -17.67              -17.156             
O              -16.202             -15.045             -16.325             
H              -19.551             -16.805             -14.035             
H              -17.487             -17.358             -15.956             
H              -19.889             -15.762             -16.181             
H              -18.895             -15.989             -17.456             
H              -13.3396            -7.77766            -0.580034           
