285
6.xyz
C              30.344              -3.092              18.792              
C              29.513              -2.051              19.523              
O              29.791              -1.773              20.698              
C              31.664              -2.435              18.361              
H              30.562              -3.843              19.437              
H              31.478              -1.765              17.646              
H              32.077              -1.983              19.148              
H              32.281              -3.137              18.014              
N              28.523              -1.459              18.853              
C              27.68               -0.464              19.5                
C              26.948              -1.059              20.695              
O              26.619              -0.326              21.636              
C              26.733              0.16                18.447              
C              25.777              1.198               19.083              
C              27.572              0.857               17.332              
H              28.415              -1.76               17.873              
H              28.272              0.279               19.837              
H              26.158              -0.567              18.084              
H              24.845              0.994               18.797              
H              25.852              1.138               20.074              
H              26.039              2.107               18.774              
H              28.095              0.16                16.854              
H              26.945              1.313               16.71               
H              28.178              1.515               17.764              
N              26.738              -2.39               20.73               
C              26.077              -3.027              21.871              
C              26.878              -2.928              23.163              
O              26.34               -3.242              24.238              
C              25.791              -4.506              21.574              
S              24.55               -4.748              20.268              
H              27.078              -2.902              19.9                
H              25.187              -2.561              22.017              
H              26.636              -4.933              21.281              
H              25.452              -4.929              22.405              
N              28.159              -2.52               23.095              
C              28.941              -2.244              24.293              
C              29.226              -0.757              24.483              
O              30.086              -0.404              25.289              
C              30.265              -3.01               24.241              
O              31.08               -2.438              23.214              
H              28.526              -2.424              22.13               
H              28.408              -2.561              25.095              
H              30.727              -2.916              25.104              
H              30.084              -3.951              24.017              
H              30.518              -2.267              22.408              
N              28.51               0.129               23.78               
C              28.804              1.556               23.816              
C              28.872              2.085               22.385              
C              30.164              1.509               21.739              
C              30.405              1.916               20.291              
H              27.742              -0.287              23.218              
H              29.707              1.68                24.227              
H              28.115              1.753               21.875              
H              28.955              3.053               22.396              
H              30.946              1.813               22.295              
H              30.11               0.505               21.789              
O              29.941              2.95                19.823              
N              31.175              1.106               19.584              
H              31.373              1.303               18.601              
H              31.571              0.282               20.03               
C              18.607              -2.227              20.698              
C              19.285              -3.568              20.483              
O              19.3                -4.08               19.368              
C              17.097              -2.438              20.842              
H              18.96               -1.816              21.536              
H              16.621              -1.601              20.58               
H              16.811              -3.187              20.248              
H              16.885              -2.662              21.791              
N              19.837              -4.127              21.559              
C              20.589              -5.37               21.5                
C              19.962              -6.408              22.419              
O              19.368              -6.091              23.456              
C              22.055              -5.148              21.89               
S              22.851              -3.845              20.879              
H              19.681              -3.594              22.445              
H              20.55               -5.721              20.56               
H              22.091              -4.863              22.833              
H              22.55               -5.989              21.744              
N              20.139              -7.666              22.03               
C              19.551              -8.793              22.728              
C              20.417              -10.011             22.478              
O              21.101              -10.117             21.459              
C              18.148              -9.131              22.22               
C              17.087              -8.114              22.613              
C              15.66               -8.568              22.308              
O              15.439              -9.304              21.312              
O              14.763              -8.168              23.075              
H              20.739              -7.77               21.177              
H              19.51               -8.604              23.707              
H              18.184              -9.159              21.237              
H              17.889              -9.997              22.607              
H              17.145              -7.964              23.585              
H              17.245              -7.285              22.104              
N              20.296              -10.97              23.367              
C              20.781              -12.301             23.077              
C              22.127              -12.579             23.7                
O              22.776              -11.738             24.33               
H              19.842              -10.701             24.256              
H              20.108              -12.986             23.413              
H              20.846              -12.424             22.069              
N              22.54               -13.827             23.508              
C              23.879              -14.273             23.871              
C              24.377              -15.074             22.676              
O              23.971              -16.229             22.487              
C              23.871              -15.107             25.147              
C              25.268              -15.422             25.615              
H              21.826              -14.457             23.077              
H              24.45               -13.471             23.941              
H              23.403              -14.592             25.857              
H              23.394              -15.959             24.962              
O              26.225              -14.963             25.012              
N              25.393              -16.183             26.7                
H              24.564              -16.519             27.157              
H              26.292              -16.415             27.052              
N              25.242              -14.495             21.839              
C              25.92               -13.197             21.967              
C              24.983              -11.973             21.831              
O              23.955              -12.03              21.169              
C              26.919              -13.21              20.814              
C              26.251              -14.084             19.79               
C              25.531              -15.149             20.554              
H              26.432              -13.146             22.846              
H              27.062              -12.291             20.454              
H              27.79               -13.602             21.099              
H              25.61               -13.538             19.234              
H              26.941              -14.482             19.172              
H              24.682              -15.42              20.1                
H              26.105              -15.957             20.693              
N              25.383              -10.897             22.5                
C              24.587              -9.667              22.594              
C              24.793              -8.856              21.328              
O              25.86               -8.271              21.13               
C              25.023              -8.865              23.812              
C              24.034              -7.855              24.365              
C              22.753              -8.243              24.755              
C              24.408              -6.519              24.549              
C              21.86               -7.319              25.315              
C              23.524              -5.612              25.117              
C              22.266              -6.016              25.493              
O              21.388              -5.1                26.068              
H              26.319              -10.998             22.959              
H              23.624              -9.924              22.653              
H              25.246              -9.514              24.555              
H              25.87               -8.365              23.575              
H              22.461              -9.19               24.636              
H              25.314              -6.221              24.271              
H              20.944              -7.613              25.579              
H              23.81               -4.657              25.251              
H              21.057              -4.486              25.358              
N              23.775              -8.799              20.476              
C              23.936              -8.27               19.122              
C              22.761              -7.373              18.795              
O              21.689              -7.479              19.404              
C              24.036              -9.394              18.071              
C              25.385              -10.11              18.228              
C              22.847              -10.34              18.194              
H              22.873              -9.155              20.846              
H              24.77               -7.717              19.103              
H              24.038              -8.974              17.176              
H              25.231              -11.095             18.257              
H              25.969              -9.882              17.452              
H              25.818              -9.811              19.076              
H              22.26               -10.236             17.392              
H              23.18               -11.281             18.249              
H              22.332              -10.115             19.02               
N              22.916              -6.506              17.788              
C              21.809              -5.61               17.421              
C              20.627              -6.381              16.845              
O              20.799              -7.256              15.982              
C              22.44               -4.688              16.365              
C              23.903              -4.723              16.68               
C              24.161              -6.146              17.082              
H              21.523              -5.057              18.216              
H              22.263              -5.036              15.444              
H              22.077              -3.76               16.446              
H              24.441              -4.473              15.874              
H              24.115              -4.093              17.428              
H              24.295              -6.734              16.289              
H              24.944              -6.219              17.696              
N              19.419              -6.014              17.281              
C              18.208              -6.67               16.79               
C              17.168              -5.649              16.368              
O              16.185              -5.998              15.713              
C              17.6                -7.626              17.838              
C              18.566              -8.739              18.201              
C              17.156              -6.869              19.102              
H              19.418              -5.249              17.975              
H              18.457              -7.217              15.981              
H              16.799              -8.055              17.424              
H              19.466              -8.351              18.4                
H              18.23               -9.226              19.008              
H              18.644              -9.379              17.436              
H              16.921              -5.933              18.851              
H              16.361              -7.33               19.49               
H              17.907              -6.87               19.758              
N              17.36               -4.385              16.725              
C              16.384              -3.377              16.308              
C              17.131              -2.066              16.096              
O              18.055              -1.757              16.846              
C              15.272              -3.261              17.364              
C              14.44               -2.014              17.275              
N              14.616              -0.925              18.106              
C              13.462              -1.664              16.401              
C              13.759              0.026               17.776              
N              13.049              -0.396              16.741              
H              18.192              -4.191              17.279              
H              15.989              -3.659              15.441              
H              14.657              -4.058              17.277              
H              15.693              -3.294              18.282              
H              13.108              -2.219              15.655              
H              13.661              0.907               18.227              
H              12.329              0.125               16.279              
N              16.766              -1.316              15.055              
C              17.345              0.006               14.844              
C              16.396              1.028               15.446              
O              15.259              1.143               15                  
C              17.55               0.3                 13.357              
C              18.341              1.542               13.118              
C              17.737              2.792               13.216              
C              19.69               1.455               12.857              
C              18.49               3.953               13.033              
C              20.453              2.619               12.678              
C              19.836              3.852               12.748              
H              16.06               -1.742              14.434              
H              18.187              0.044               15.374              
H              18.039              -0.461              12.966              
H              16.66               0.414               12.949              
H              16.77               2.865               13.417              
H              20.138              0.567               12.793              
H              18.042              4.848               13.11               
H              21.442              2.539               12.499              
H              20.373              4.691               12.59               
N              16.846              1.76                16.465              
C              15.907              2.58                17.222              
C              15.865              4.022               16.763              
O              14.783              4.62                16.733              
C              16.239              2.544               18.717              
C              14.994              2.699               19.605              
O              13.982              1.993               19.361              
O              15.043              3.5                 20.57               
H              17.847              1.697               16.654              
H              14.981              2.189               17.068              
H              16.66               1.67                18.921              
H              16.859              3.29                18.917              
N              17.01               4.621               16.489              
C              17.039              6.041               16.173              
C              18.418              6.4                 15.645              
O              19.366              5.621               15.728              
C              16.697              6.875               17.406              
H              17.847              4.02                16.517              
H              16.363              6.23                15.461              
H              17.407              6.752               18.097              
H              16.643              7.839               17.15               
H              15.817              6.577               17.774              
N              18.514              7.581               15.059              
C              19.811              8.194               14.818              
C              19.732              9.615               15.351              
O              18.672              10.24               15.312              
C              20.201              8.202               13.33               
O              19.296              9.01                12.597              
H              17.614              8.018               14.795              
H              20.492              7.704               15.347              
H              21.115              8.574               13.244              
H              20.161              7.274               12.988              
H              18.821              8.449               11.921              
N              20.842              10.102              15.893              
C              20.856              11.433              16.492              
C              22.136              12.178              16.159              
O              23.119              11.613              15.668              
C              20.678              11.371              18.02               
C              19.319              10.79               18.385              
C              21.799              10.569              18.651              
O              22.195              13.385              16.409              
H              21.664              9.48                15.855              
H              20.081              11.955              16.11               
H              20.697              12.305              18.366              
H              19.442              9.888               18.799              
H              18.861              11.395              19.036              
H              18.76               10.705              17.56               
H              22.323              11.157              19.268              
H              21.412              9.804               19.167              
H              22.401              10.217              17.933              
H              29.8359             -3.50253            17.9542             
H              18.8457             -1.59228            19.8769             
H              28.0715             2.06371             24.4616             
