207
5.xyz
C              11.187              6.331               -1.189              
C              12.079              7.519               -1.503              
O              12.683              7.6                 -2.577              
C              12.037              5.225               -0.546              
C              11.226              4.117               0.071               
C              10.773              4.216               1.38                
C              10.9                2.982               -0.664              
C              10.015              3.223               1.945               
C              10.157              1.976               -0.104              
C              9.713               2.102               1.199               
O              8.959               1.097               1.761               
H              10.484              6.631               -0.535              
H              12.621              4.835               -1.253              
H              12.596              5.641               0.166               
H              11.008              5.031               1.919               
H              11.213              2.907               -1.609              
H              9.681               3.306               2.886               
H              9.934               1.152               -0.629              
H              8.811               1.3                 2.727               
N              12.149              8.438               -0.546              
C              13.143              9.501               -0.541              
C              14.408              8.991               0.134               
O              14.338              8.338               1.178               
C              12.611              10.727              0.203               
C              13.655              11.8                0.445               
C              13.385              12.571              1.744               
C              13.139              11.649              2.96                
N              14.315              10.818              3.435               
H              11.426              8.331               0.205               
H              13.36               9.751               -1.485              
H              11.872              11.122              -0.338              
H              12.257              10.425              1.087               
H              14.558              11.375              0.512               
H              13.647              12.449              -0.315              
H              14.175              13.146              1.947               
H              12.575              13.14               1.619               
H              12.818              12.225              3.738               
H              12.371              11.018              2.733               
H              14.744              11.285              4.202               
H              13.979              9.925               3.718               
H              14.96               10.722              2.684               
N              15.562              9.296               -0.463              
C              16.864              8.815               -0.005              
C              17.654              9.972               0.595               
O              17.965              10.938              -0.105              
C              17.642              8.196               -1.166              
O              16.991              7.001               -1.618              
C              19.078              7.878               -0.762              
H              15.452              9.92                -1.302              
H              16.717              8.128               0.709               
H              17.662              8.859               -1.946              
H              19.136              7.783               0.234               
H              19.368              7.021               -1.192              
H              19.685              8.618               -1.059              
H              16.785              6.4                 -0.839              
N              17.995              9.873               1.881               
C              18.744              10.923              2.564               
C              19.997              10.327              3.185               
O              19.905              9.482               4.077               
C              17.914              11.604              3.653               
O              16.645              12.015              3.131               
C              18.677              12.818              4.222               
H              17.685              8.996               2.345               
H              19.019              11.609              1.889               
H              17.742              10.935              4.41                
H              19.583              12.526              4.524               
H              18.767              13.513              3.51                
H              18.169              13.193              4.996               
H              16.352              11.396              2.395               
N              21.154              10.788              2.738               
C              22.428              10.397              3.314               
C              22.736              11.285              4.511               
O              22.337              12.452              4.553               
C              23.54               10.511              2.27                
C              24.909              10.214              2.809               
C              25.007              8.809               3.356               
H              21.072              11.457              1.936               
H              22.347              9.455               3.645               
H              23.342              9.869               1.526               
H              23.536              11.446              1.904               
H              25.58               10.315              2.075               
H              25.118              10.856              3.545               
O              24.307              7.905               2.893               
N              25.878              8.612               4.338               
H              25.989              7.696               4.766               
H              26.441              9.399               4.661               
N              23.426              10.715              5.501               
C              23.788              11.469              6.695               
C              24.901              10.744              7.436               
O              25.157              9.557               7.218               
C              22.578              11.678              7.611               
H              23.672              9.723               5.348               
H              24.121              12.373              6.419               
H              22.858              11.551              8.56                
H              22.226              12.603              7.486               
H              21.87               11.015              7.378               
N              25.578              11.484              8.303               
C              26.534              10.903              9.234               
C              26.021              11.249              10.615              
O              25.947              12.429              10.976              
C              27.963              11.401              8.984               
C              28.527              10.856              7.678               
H              25.369              12.504              8.261               
H              26.48               9.92                9.137               
H              27.947              12.39               8.933               
H              28.538              11.093              9.73                
O              28.01               11.166              6.604               
N              29.54               10.003              7.765               
H              29.889              9.747               8.672               
H              29.951              9.62                6.944               
N              25.605              10.219              11.356              
C              24.912              10.437              12.616              
C              25.288              9.329               13.585              
O              25.79               8.275               13.198              
C              23.387              10.471              12.425              
C              22.869              11.682              11.643              
C              21.373              11.845              11.823              
C              20.851              12.974              10.958              
N              19.367              13.023              10.979              
H              25.814              9.287               10.964              
H              25.2                11.315              13.001              
H              23.116              9.645               11.934              
H              22.961              10.478              13.329              
H              23.331              12.501              11.978              
H              23.071              11.55               10.676              
H              20.922              11.003              11.554              
H              21.183              12.058              12.773              
H              21.215              13.842              11.3                
H              21.163              12.835              10.016              
H              19.022              13.086              10.042              
H              19.012              12.193              11.41               
H              19.067              13.823              11.499              
N              25.066              9.595               14.865              
C              25.182              8.54                15.866              
C              23.971              7.638               15.732              
O              22.852              8.13                15.586              
C              25.243              9.139               17.278              
C              26.362              10.12               17.462              
H              24.815              10.569              15.081              
H              25.999              8.006               15.671              
H              24.376              9.608               17.47               
H              25.363              8.395               17.941              
N              27.642              9.73                17.794              
C              26.408              11.464              17.298              
C              28.426              10.796              17.849              
N              27.703              11.858              17.547              
H              27.932              8.789               17.965              
H              25.65               12.057              17.046              
H              29.394              10.795              18.08               
N              24.188              6.322               15.717              
C              23.046              5.412               15.618              
C              22.676              4.878               16.989              
O              23.502              4.827               17.911              
C              23.315              4.263               14.634              
C              24.415              3.317               15.147              
C              23.605              4.853               13.297              
C              24.44               1.97                14.37               
H              25.162              6.026               15.777              
H              22.273              5.968               15.304              
H              22.475              3.73                14.541              
H              25.293              3.753               15.036              
H              24.244              3.116               16.098              
H              23.707              4.128               12.61               
H              22.857              5.459               13.013              
H              24.455              5.387               13.327              
H              24.61               2.167               13.412              
H              25.166              1.408               14.746              
H              23.559              1.528               14.486              
N              21.412              4.486               17.135              
C              20.953              3.913               18.399              
C              20.286              2.592               18.059              
O              19.311              2.571               17.309              
C              19.981              4.826               19.175              
C              20.639              6.185               19.529              
C              19.518              4.11                20.427              
C              19.667              7.171               20.195              
H              20.81               4.617               16.31               
H              21.768              3.697               18.918              
H              19.198              5.015               18.589              
H              21.395              6.014               20.147              
H              20.976              6.593               18.69               
H              18.848              4.674               20.91               
H              19.097              3.237               20.18               
H              20.3                3.941               21.027              
H              19.327              6.765               21.038              
H              20.154              8.016               20.393              
H              18.913              7.348               19.57               
N              20.852              1.491               18.555              
C              20.312              0.164               18.288              
C              19.951              -0.495              19.614              
O              20.545              -0.218              20.658              
C              21.321              -0.726              17.514              
C              21.629              -0.102              16.15               
C              22.603              -0.895              18.341              
H              21.695              1.662               19.137              
H              19.473              0.267               17.756              
H              20.881              -1.597              17.341              
H              21.086              0.729               16.038              
H              22.601              0.122               16.102              
H              21.399              -0.754              15.43               
H              23.107              -0.034              18.336              
H              22.355              -1.14               19.276              
H              23.157              -1.618              17.934              
N              18.935              -1.355              19.57               
H              18.402              -1.353              18.677              
H              10.7059             5.99035             -2.06465            
H              18.7074             -1.96006            20.3527             
