222
6.xyz
C              -21.128             -6.258              10.746              
C              -21.657             -5.801              9.388               
O              -22.589             -4.987              9.319               
C              -21.897             -7.535              11.155              
C              -21.543             -8.152              12.481              
C              -22.45              -9.322              12.852              
H              -20.148             -6.418              10.653              
H              -22.887             -7.312              11.159              
H              -21.751             -8.23               10.428              
H              -20.601             -8.489              12.447              
H              -21.621             -7.458              13.199              
O              -23.398             -9.679              12.131              
N              -22.145             -9.934              13.974              
H              -22.714             -10.726             14.306              
H              -21.344             -9.625              14.516              
N              -21.076             -6.33               8.307               
C              -21.472             -5.968              6.94                
C              -21.622             -7.258              6.149               
O              -20.63              -7.948              5.903               
C              -20.436             -5.051              6.294               
C              -20.813             -4.483              4.951               
C              -21.544             -3.286              4.857               
C              -20.44              -5.118              3.766               
C              -21.877             -2.739              3.632               
C              -20.77              -4.554              2.53                
C              -21.485             -3.356              2.463               
O              -21.838             -2.77               1.276               
H              -20.322             -7.018              8.516               
H              -22.357             -5.518              6.981               
H              -20.263             -4.284              6.922               
H              -19.583             -5.573              6.184               
H              -21.828             -2.824              5.701               
H              -19.938             -5.971              3.798               
H              -22.409             -1.883              3.594               
H              -20.492             -5.013              1.683               
H              -21.097             -2.174              0.968               
N              -22.851             -7.576              5.739               
C              -23.12              -8.818              5.001               
C              -22.406             -8.829              3.659               
O              -22.326             -7.802              2.978               
C              -24.633             -8.967              4.785               
C              -25.025             -10.31              4.145               
H              -23.585             -6.887              5.98                
H              -22.738             -9.572              5.549               
H              -25.088             -8.901              5.668               
H              -24.941             -8.236              4.183               
O              -25.3               -10.425             2.931               
N              -25.079             -11.327             4.979               
H              -24.884             -11.217             5.952               
H              -25.324             -12.246             4.635               
N              -21.917             -10.008             3.255               
C              -21.206             -10.13              1.98                
C              -22.169             -9.926              0.811               
O              -23.048             -10.76              0.563               
C              -20.536             -11.495             1.851               
C              -19.436             -11.736             2.84                
H              -22.081             -10.794             3.9                 
H              -20.504             -9.414              1.938               
H              -21.231             -12.216             1.972               
H              -20.15              -11.585             0.924               
N              -18.381             -10.853             3.003               
C              -19.224             -12.777             3.696               
C              -17.579             -11.351             3.93                
N              -18.065             -12.506             4.365               
H              -19.805             -13.575             3.804               
H              -16.733             -10.924             4.255               
H              -17.645             -13.08              5.071               
N              -21.954             -8.859              0.05                
C              -22.623             -8.634              -1.225              
C              -21.811             -9.199              -2.391              
O              -22.382             -9.805              -3.315              
C              -22.837             -7.125              -1.453              
C              -23.614             -6.421              -0.361              
C              -23.994             -4.996              -0.742              
N              -24.49              -4.262              0.422               
C              -24.68              -2.943              0.431               
N              -24.503             -2.224              -0.664              
N              -25.059             -2.331              1.537               
H              -21.254             -8.184              0.449               
H              -23.521             -9.094              -1.209              
H              -21.938             -6.697              -1.525              
H              -23.332             -7.014              -2.313              
H              -24.458             -6.924              -0.171              
H              -23.06              -6.379              0.472               
H              -23.186             -4.545              -1.096              
H              -24.705             -5.041              -1.431              
H              -24.697             -4.777              1.254               
H              -24.243             -2.659              -1.525              
H              -24.632             -1.227              -0.635              
H              -25.223             -2.869              2.371               
H              -25.185             -1.341              1.553               
N              -20.493             -9.012              -2.349              
C              -19.554             -9.639              -3.273              
C              -19.221             -11.012             -2.688              
O              -18.673             -11.112             -1.584              
C              -18.302             -8.763              -3.459              
C              -17.236             -9.499              -4.279              
C              -18.681             -7.428              -4.095              
H              -20.182             -8.363              -1.58               
H              -20.011             -9.779              -4.139              
H              -17.908             -8.598              -2.56               
H              -16.418             -8.93               -4.341              
H              -17.013             -10.361             -3.829              
H              -17.592             -9.679              -5.194              
H              -18.172             -7.315              -4.947              
H              -19.662             -7.421              -4.283              
H              -18.453             -6.688              -3.464              
N              -19.574             -12.071             -3.422              
C              -19.496             -13.396             -2.82               
C              -18.299             -14.224             -3.281              
O              -18.04              -15.287             -2.676              
C              -20.825             -14.138             -3.006              
C              -22.03              -13.309             -2.575              
C              -23.36              -14.025             -2.809              
C              -24.556             -13.201             -2.342              
N              -24.465             -12.988             -0.87               
H              -19.88              -11.877             -4.372              
H              -19.442             -13.291             -1.806              
H              -20.926             -14.36              -3.967              
H              -20.799             -14.964             -2.456              
H              -21.948             -13.098             -1.595              
H              -22.035             -12.446             -3.09               
H              -23.46              -14.203             -3.786              
H              -23.353             -14.886             -2.306              
H              -24.543             -12.323             -2.804              
H              -25.391             -13.695             -2.553              
H              -23.505             -12.992             -0.594              
H              -24.877             -12.108             -0.637              
H              -24.953             -13.722             -0.399              
N              -17.53              -13.742             -4.249              
C              -16.271             -14.345             -4.655              
C              -15.154             -13.849             -3.73               
O              -14.324             -13.001             -4.087              
C              -15.999             -14.046             -6.123              
C              -16.945             -14.751             -7.087              
C              -16.731             -14.334             -8.527              
C              -17.694             -15.03              -9.495              
N              -17.595             -14.494             -10.87              
H              -17.915             -12.873             -4.704              
H              -16.337             -15.339             -4.568              
H              -16.086             -13.062             -6.266              
H              -15.066             -14.334             -6.336              
H              -16.804             -15.744             -7.01               
H              -17.892             -14.541             -6.823              
H              -16.87              -13.347             -8.607              
H              -15.797             -14.563             -8.8                
H              -17.482             -16.013             -9.501              
H              -18.632             -14.907             -9.153              
H              -17.784             -15.223             -11.529             
H              -18.26              -13.756             -10.992             
H              -16.673             -14.137             -11.026             
N              -15.178             -14.375             -2.495              
C              -14.271             -13.897             -1.452              
C              -12.808             -14.049             -1.874              
O              -11.967             -13.201             -1.549              
C              -14.544             -14.617             -0.122              
C              -15.924             -14.487             0.499               
C              -15.937             -15.206             1.841               
C              -16.305             -13.032             0.655               
H              -15.874             -15.124             -2.356              
H              -14.453             -12.92              -1.291              
H              -14.371             -15.597             -0.272              
H              -13.877             -14.273             0.547               
H              -16.597             -14.903             -0.104              
H              -15.256             -14.795             2.447               
H              -16.844             -15.124             2.255               
H              -15.72              -16.173             1.704               
H              -16.313             -12.585             -0.242              
H              -17.217             -12.962             1.065               
H              -15.642             -12.569             1.247               
N              -12.469             -15.132             -2.56               
C              -11.075             -15.347             -2.934              
C              -10.629             -14.481             -4.12               
O              -9.527              -14.692             -4.634              
C              -10.795             -16.834             -3.165              
C              -11.484             -17.379             -4.397              
H              -13.235             -15.773             -2.793              
H              -10.506             -15.071             -2.142              
H              -9.81               -16.955             -3.269              
H              -11.117             -17.341             -2.368              
O              -12.169             -16.657             -5.129              
N              -11.306             -18.68              -4.638              
H              -10.751             -19.232             -4.019              
H              -11.731             -19.1               -5.44               
N              -11.46              -13.537             -4.576              
C              -11.046             -12.518             -5.541              
C              -10.939             -11.124             -4.915              
O              -10.586             -10.173             -5.629              
C              -11.996             -12.508             -6.739              
C              -11.967             -13.825             -7.504              
C              -12.826             -13.852             -8.751              
O              -13.468             -12.84              -9.093              
O              -12.853             -14.921             -9.426              
H              -12.426             -13.591             -4.184              
H              -10.15              -12.774             -5.939              
H              -12.903             -12.381             -6.402              
H              -11.704             -11.804             -7.348              
H              -11.032             -13.998             -7.781              
H              -12.295             -14.539             -6.9                
N              -11.238             -10.992             -3.622              
C              -11.103             -9.719              -2.893              
C              -9.671              -9.675              -2.393              
O              -9.346              -10.046             -1.248              
C              -12.132             -9.626              -1.756              
C              -13.571             -9.812              -2.254              
C              -12.006             -8.292              -1.042              
C              -14.609             -9.949              -1.146              
H              -11.577             -11.868             -3.166              
H              -11.195             -9.007              -3.57               
H              -11.938             -10.359             -1.101              
H              -13.812             -9.027              -2.824              
H              -13.602             -10.636             -2.821              
H              -12.631             -8.268              -0.262              
H              -11.068             -8.172              -0.718              
H              -12.235             -7.551              -1.672              
H              -14.596             -9.125              -0.584              
H              -15.51              -10.065             -1.557              
H              -14.386             -10.744             -0.587              
N              -8.743              -9.251              -3.275              
H              -9.089              -8.754              -4.083              
H              -7.76741            -9.45292            -3.07863            
H              -21.2721            -5.47552            11.4462             
