363
2.xyz
C              -10.747             3.59                4.295               
O              -9.525              3.648               4.062               
N              -11.401             2.441               4.508               
C              -10.857             1.117               4.161               
C              -11.661             0.627               2.956               
O              -12.904             0.673               2.961               
C              -11.044             0.115               5.297               
C              -10.477             0.43                6.644               
C              -10.596             -0.729              7.593               
C              -9.075              0.872               6.616               
H              -12.344             2.564               4.948               
H              -9.915              1.224               3.89                
H              -12.041             -0.027              5.406               
H              -10.643             -0.762              4.989               
H              -10.961             1.229               7.033               
H              -10.102             -1.523              7.23                
H              -10.207             -0.484              8.485               
H              -11.561             -0.975              7.716               
H              -8.972              1.71                6.062               
H              -8.741              1.071               7.548               
H              -8.481              0.16                6.218               
N              -10.959             0.117               1.944               
C              -11.594             -0.392              0.72                
C              -11.077             -1.807              0.427               
O              -9.954              -1.947              -0.06               
C              -11.297             0.549               -0.456              
C              -12.038             1.856               -0.343              
O              -13.253             1.869               -0.579              
O              -11.407             2.883               0.011               
H              -9.928              0.109               2.092               
H              -12.572             -0.471              0.906               
H              -10.321             0.728               -0.461              
H              -11.574             0.088               -1.289              
N              -11.899             -2.835              0.711               
C              -11.577             -4.206              0.31                
C              -12.011             -4.353              -1.142              
O              -13.21              -4.234              -1.444              
C              -12.319             -5.197              1.207               
C              -11.775             -5.292              2.616               
C              -12.22              -4.435              3.624               
C              -10.82              -6.245              2.936               
C              -11.704             -4.536              4.913               
C              -10.311             -6.347              4.226               
C              -10.758             -5.496              5.208               
H              -12.756             -2.571              1.225               
H              -10.59              -4.288              0.326               
H              -13.263             -4.907              1.268               
H              -12.247             -6.095              0.795               
H              -12.909             -3.75               3.424               
H              -10.49              -6.873              2.227               
H              -12.03              -3.899              5.625               
H              -9.61               -7.052              4.429               
H              -10.4               -5.568              6.144               
N              -11.036             -4.529              -2.044              
C              -11.247             -4.415              -3.483              
C              -11.186             -5.765              -4.192              
O              -10.324             -6.604              -3.892              
C              -10.205             -3.474              -4.065              
C              -10.431             -2.054              -3.528              
C              -9.206              -1.201              -3.411              
O              -9.232              0.001               -3.675              
N              -8.096              -1.833              -3.038              
H              -10.105             -4.757              -1.62               
H              -12.172             -4.031              -3.632              
H              -9.308              -3.764              -3.786              
H              -10.298             -3.445              -5.045              
H              -11.095             -1.595              -4.14               
H              -10.866             -2.135              -2.616              
H              -7.209              -1.324              -2.947              
H              -8.136              -2.828              -2.842              
N              -12.091             -5.934              -5.166              
C              -12.087             -7.03               -6.156              
C              -11.886             -6.362              -7.525              
O              -12.832             -5.873              -8.146              
C              -13.416             -7.785              -6.108              
C              -13.545             -8.854              -7.188              
C              -14.809             -9.723              -7.033              
N              -14.905             -10.623             -8.186              
C              -15.691             -10.451             -9.244              
N              -16.569             -9.465              -9.313              
N              -15.568             -11.293             -10.259             
H              -12.842             -5.186              -5.17               
H              -11.321             -7.621              -5.975              
H              -13.491             -8.231              -5.224              
H              -14.152             -7.132              -6.234              
H              -13.586             -8.419              -8.088              
H              -12.753             -9.465              -7.152              
H              -14.714             -10.247             -6.21               
H              -15.585             -9.123              -7.014              
H              -14.317             -11.453             -8.174              
H              -16.641             -8.807              -8.559              
H              -17.161             -9.37               -10.113             
H              -14.891             -12.026             -10.243             
H              -16.166             -11.194             -11.064             
N              -10.631             -6.265              -7.959              
C              -10.329             -5.435              -9.118              
C              -10.76              -4                  -8.876              
O              -10.453             -3.41               -7.833              
H              -9.934              -6.8                -7.431              
H              -9.34               -5.461              -9.3                
H              -10.81              -5.797              -9.924              
N              -11.485             -3.426              -9.859              
C              -12.032             -2.072              -9.714              
C              -13.255             -2                  -8.789              
O              -13.663             -0.892              -8.399              
C              -12.413             -1.497              -11.091             
C              -12.858             -0.027              -11.013             
H              -11.614             -4.013              -10.698             
H              -11.308             -1.504              -9.287              
H              -11.62              -1.551              -11.685             
H              -13.165             -2.031              -11.458             
O              -12.067             0.852               -10.638             
N              -14.11              0.233               -11.423             
H              -14.686             -0.516              -11.746             
H              -14.455             1.166               -11.402             
N              -13.866             -3.137              -8.456              
C              -15.003             -3.122              -7.543              
C              -14.53              -3.003              -6.095              
O              -13.422             -3.425              -5.743              
C              -15.866             -4.372              -7.719              
C              -16.745             -4.337              -8.964              
O              -16.769             -3.309              -9.709              
O              -17.443             -5.365              -9.185              
H              -13.479             -3.988              -8.884              
H              -15.539             -2.295              -7.745              
H              -15.259             -5.16               -7.783              
H              -16.454             -4.458              -6.919              
N              -15.388             -2.421              -5.252              
C              -15.137             -2.343              -3.814              
C              -16.148             -3.24               -3.106              
O              -17.341             -2.911              -3.032              
C              -15.192             -0.906              -3.262              
C              -14.867             -0.943              -1.766              
C              -14.224             -0.01               -4.005              
H              -16.241             -2.033              -5.705              
H              -14.226             -2.703              -3.636              
H              -16.121             -0.584              -3.345              
H              -13.988             -1.397              -1.631              
H              -14.82              -0.009              -1.416              
H              -15.583             -1.446              -1.286              
H              -13.684             -0.559              -4.644              
H              -14.735             0.685               -4.513              
H              -13.613             0.437               -3.35               
N              -15.687             -4.414              -2.624              
C              -16.572             -5.332              -1.911              
C              -17.078             -4.745              -0.601              
O              -18.245             -4.933              -0.247              
C              -15.833             -6.631              -1.639              
H              -14.688             -4.591              -2.802              
H              -17.369             -5.536              -2.502              
H              -16.186             -7.049              -0.802              
H              -15.967             -7.26               -2.405              
H              -14.856             -6.445              -1.53               
N              -16.223             -4.011              0.107               
C              -16.565             -3.474              1.42                
C              -15.784             -2.181              1.61                
O              -14.552             -2.216              1.704               
C              -16.256             -4.486              2.531               
C              -16.491             -3.989              3.949               
C              -17.544             -3.159              4.288               
C              -15.63              -4.401              4.951               
C              -17.733             -2.735              5.615               
C              -15.813             -3.987              6.28                
C              -16.868             -3.152              6.61                
H              -15.302             -3.856              -0.352              
H              -17.529             -3.228              1.393               
H              -16.837             -5.279              2.392               
H              -15.298             -4.737              2.457               
H              -18.186             -2.85               3.593               
H              -14.862             -5.005              4.734               
H              -18.506             -2.124              5.824               
H              -15.164             -4.306              6.988               
H              -17.004             -2.855              7.55                
N              -16.507             -1.059              1.602               
C              -16.007             0.29                1.871               
C              -16.478             0.652               3.276               
O              -17.681             0.596               3.552               
C              -16.653             1.24                0.834               
C              -16.401             2.713               0.99                
H              -17.535             -1.235              1.371               
H              -15.019             0.268               1.867               
H              -16.336             0.962               -0.095              
H              -17.662             1.089               0.849               
N              -15.217             3.326               0.612               
C              -17.266             3.736               1.269               
C              -15.349             4.645               0.724               
N              -16.578             4.928               1.113               
H              -14.397             2.852               0.304               
H              -18.22              3.64                1.537               
H              -14.627             5.313               0.542               
N              -15.527             0.984               4.152               
C              -15.77              1.355               5.553               
C              -15.253             2.786               5.712               
O              -14.053             3.007               5.594               
C              -15.037             0.363               6.477               
C              -15.047             0.722               7.946               
C              -16.065             0.289               8.787               
C              -14.018             1.468               8.501               
C              -16.051             0.595               10.156              
C              -14.004             1.777               9.885               
C              -15.016             1.349               10.69               
H              -14.552             0.958               3.742               
H              -16.749             1.389               5.677               
H              -15.476             -0.521              6.377               
H              -14.091             0.32                6.18                
H              -16.82              -0.248              8.423               
H              -13.27              1.798               7.93                
H              -16.799             0.262               10.74               
H              -13.228             2.319               10.246              
H              -15.026             1.57                11.669              
N              -16.149             3.758               5.939               
C              -15.843             5.184               5.706               
C              -16.3               6.086               6.853               
O              -17.403             6.66                6.812               
C              -16.471             5.612               4.368               
C              -16.438             7.093               4.086               
H              -17.068             3.426               6.289               
H              -14.836             5.26                5.651               
H              -15.982             5.131               3.63                
H              -17.43              5.303               4.366               
O              -17.388             7.622               3.471               
N              -15.371             7.778               4.484               
H              -14.627             7.284               4.95                
H              -15.306             8.754               4.326               
N              -15.464             6.241               7.893               
C              -15.712             7.28                8.905               
C              -15.666             8.685               8.306               
O              -14.693             9.072               7.647               
C              -14.583             7.06                9.921               
C              -14.126             5.619               9.734               
C              -14.315             5.362               8.248               
H              -16.595             7.119               9.369               
H              -13.819             7.69                9.75                
H              -14.912             7.2                 10.86               
H              -13.17              5.527               9.993               
H              -14.692             5.008               10.277              
H              -13.506             5.623               7.729               
H              -14.541             4.407               8.071               
N              -16.727             9.456               8.591               
C              -16.868             10.854              8.207               
C              -16.978             11.668              9.494               
O              -17.888             11.444              10.296              
C              -18.132             11.036              7.357               
C              -18.138             10.223              6.082               
C              -19.366             10.442              5.218               
N              -19.308             9.547               4.058               
C              -20.197             9.522               3.078               
N              -21.253             10.322              3.095               
N              -20.02              8.652               2.085               
H              -17.475             8.941               9.137               
H              -16.055             11.142              7.716               
H              -18.915             10.762              7.908               
H              -18.204             11.999              7.115               
H              -17.326             10.456              5.531               
H              -18.092             9.242               6.31                
H              -20.166             10.231              5.753               
H              -19.366             11.378              4.909               
H              -18.53              8.903               4.007               
H              -21.386             10.974              3.84                
H              -21.927             10.276              2.352               
H              -19.227             8.049               2.071               
H              -20.694             8.605               1.342               
N              -16.051             12.611              9.7                 
C              -15.976             13.381              10.94               
C              -16.864             14.615              10.94               
O              -17.081             15.225              12.007              
C              -14.531             13.795              11.216              
C              -13.657             12.644              11.649              
C              -13.174             11.716              10.722              
C              -13.34              12.46               12.987              
C              -12.399             10.63               11.141              
C              -12.554             11.38               13.408              
C              -12.081             10.476              12.479              
H              -15.393             12.746              8.903               
H              -16.315             12.775              11.681              
H              -14.155             14.164              10.383              
H              -14.538             14.46               11.943              
H              -13.379             11.825              9.758               
H              -13.677             13.111              13.671              
H              -12.078             9.964               10.456              
H              -12.344             11.275              14.391              
H              -11.507             9.707               12.767              
N              -17.371             15.006              9.783               
C              -18.137             16.242              9.692               
C              -19.083             16.182              8.496               
O              -18.873             16.879              7.498               
C              -17.159             17.403              9.604               
C              -17.839             18.72               9.532               
H              -17.185             14.384              8.982               
H              -18.708             16.301              10.514              
H              -16.573             17.378              10.415              
H              -16.598             17.275              8.785               
O              -19.022             18.843              9.852               
N              -17.106             19.723              9.083               
H              -16.156             19.583              8.808               
H              -17.505             20.645              9.014               
N              -20.108             15.313              8.554               
C              -21.163             15.299              7.539               
C              -22.324             16.089              8.143               
O              -23.013             15.609              9.046               
C              -21.594             13.881              7.171               
C              -22.625             13.854              6.037               
C              -23.248             12.492              5.808               
O              -23.985             12.017              6.7                 
O              -23.008             11.893              4.738               
H              -20.082             14.67               9.365               
H              -20.849             15.743              6.719               
H              -20.805             13.395              6.86                
H              -22.012             13.477              7.956               
H              -23.349             14.481              6.272               
H              -22.168             14.119              5.204               
N              -22.499             17.339              7.709               
C              -23.49              18.225              8.329               
C              -23.347             18.292              9.855               
O              -24.334             18.24               10.599              
C              -24.91              17.814              7.933               
C              -25.117             17.768              6.435               
H              -21.893             17.62               6.922               
H              -23.316             19.157              7.978               
H              -25.09              16.907              8.309               
H              -25.548             18.475              8.324               
O              -25.606             16.778              5.895               
N              -24.758             18.847              5.754               
H              -24.367             19.635              6.235               
H              -24.875             18.879              4.762               
N              -22.104             18.409              10.325              
C              -21.779             18.581              11.747              
C              -22.09              17.351              12.583              
O              -22.22              17.444              13.814              
C              -22.406             19.857              12.296              
C              -21.912             21.087              11.534              
H              -21.363             18.367              9.58                
H              -20.778             18.735              11.802              
H              -23.388             19.801              12.193              
H              -22.15              19.956              13.247              
O              -20.711             21.222              11.26               
N              -22.831             21.964              11.15               
H              -23.796             21.797              11.373              
H              -22.569             22.782              10.645              
N              -22.123             16.183              11.921              
C              -22.315             14.899              12.575              
C              -23.654             14.269              12.163              
C              -24.845             15.216              12.201              
C              -25.818             14.852              13.303              
N              -26.857             15.869              13.496              
C              -28.171             15.651              13.422              
N              -28.648             14.44               13.165              
N              -29.012             16.657              13.611              
H              -21.997             16.285              10.884              
H              -22.297             15.029              13.566              
H              -23.56              13.926              11.23               
H              -23.842             13.51               12.783              
H              -24.522             16.147              12.362              
H              -25.329             15.173              11.329              
H              -26.252             13.985              13.064              
H              -25.303             14.748              14.153              
H              -26.553             16.812              13.702              
H              -28.029             13.666              13.042              
H              -29.639             14.298              13.094              
H              -28.661             17.57               13.828              
H              -29.999             16.508              13.54               
H              -11.3473            4.46667             4.28104             
H              -21.4928            14.2319             12.2949             
