370
3.xyz
C              -21.17              13.97               12.185              
O              -20.607             14.072              11.094              
N              -20.825             13.094              13.105              
C              -19.83              12.046              12.88               
C              -20.571             10.745              12.587              
O              -21.401             10.316              13.392              
C              -18.941             11.874              14.116              
C              -18.274             13.18               14.559              
C              -17.165             12.988              15.587              
N              -17.623             12.438              16.853              
C              -16.809             12.03               17.818              
N              -15.49              12.107              17.667              
N              -17.319             11.555              18.938              
H              -21.324             13.207              14.022              
H              -19.279             12.287              12.087              
H              -19.503             11.55               14.863              
H              -18.226             11.225              13.9                
H              -17.879             13.636              13.755              
H              -18.97              13.783              14.961              
H              -16.479             12.373              15.186              
H              -16.74              13.884              15.748              
H              -18.613             12.362              17.007              
H              -15.093             12.49               16.837              
H              -14.886             11.776              18.399              
H              -18.312             11.52               19.069              
H              -16.715             11.226              19.668              
N              -20.288             10.132              11.44               
C              -21                 8.918               11.042              
C              -20.048             8.017               10.272              
O              -19.157             8.48                9.577               
C              -22.243             9.238               10.193              
C              -21.825             9.945               8.89                
C              -23.093             7.97                9.958               
H              -19.546             10.574              10.875              
H              -21.283             8.437               11.871              
H              -22.802             9.883               10.698              
H              -22.639             10.302              8.438               
H              -21.204             10.693              9.111               
H              -21.367             9.288               8.296               
H              -23.079             7.418               10.787              
H              -24.026             8.247               9.744               
H              -22.701             7.46                9.197               
N              -20.268             6.712               10.376              
C              -19.576             5.727               9.545               
C              -20.516             5.259               8.448               
O              -21.647             4.839               8.716               
C              -19.039             4.549               10.367              
C              -17.998             5.103               11.357              
C              -18.404             3.498               9.454               
C              -17.531             4.123               12.344              
H              -20.974             6.448               11.099              
H              -18.83              6.215               9.097               
H              -19.781             4.171               10.89               
H              -17.225             5.449               10.817              
H              -18.421             5.886               11.823              
H              -18.052             2.748               10.01               
H              -19.093             3.152               8.821               
H              -17.657             3.915               8.941               
H              -17.1               3.337               11.886              
H              -16.854             4.539               12.963              
H              -18.3               3.784               12.898              
N              -20.069             5.378               7.204               
C              -20.831             4.9                 6.039               
C              -20.154             3.644               5.493               
O              -18.935             3.639               5.285               
C              -20.894             5.997               4.962               
C              -21.532             5.48                3.684               
C              -21.628             7.223               5.516               
H              -19.136             5.836               7.117               
H              -21.745             4.651               6.349               
H              -19.956             6.255               4.737               
H              -22.519             5.388               3.816               
H              -21.356             6.122               2.937               
H              -21.144             4.588               3.452               
H              -21.558             7.969               4.857               
H              -22.587             6.988               5.664               
H              -21.206             7.491               6.38                
N              -20.94              2.583               5.249               
C              -20.434             1.37                4.606               
C              -21.212             1.117               3.316               
O              -22.44              1.339               3.247               
C              -20.541             0.154               5.554               
S              -19.504             0.282               7.049               
H              -21.926             2.701               5.554               
H              -19.474             1.517               4.367               
H              -21.489             0.07                5.84                
H              -20.258             -0.654              5.048               
H              -18.606             0.633               6.793               
N              -20.512             0.6                 2.305               
C              -21.15              0.365               1.011               
C              -20.266             -0.554              0.165               
O              -19.159             -0.955              0.564               
C              -21.418             1.712               0.307               
C              -22.598             1.696               -0.671              
H              -19.527             0.391               2.509               
H              -22.002             -0.129              1.184               
H              -21.602             2.401               1.01                
H              -20.593             1.969               -0.2                
O              -23.13              0.642               -1.047              
N              -23.022             2.885               -1.087              
H              -22.574             3.72                -0.768              
H              -23.793             2.947               -1.723              
N              -20.773             -0.854              -1.041              
C              -20.128             -1.642              -2.091              
C              -20.2               -0.868              -3.395              
O              -21.235             -0.255              -3.677              
C              -20.889             -3.002              -2.201              
O              -20.718             -3.748              -0.987              
C              -20.461             -3.845              -3.396              
H              -21.753             -0.441              -1.179              
H              -19.168             -1.769              -1.848              
H              -21.88              -2.805              -2.321              
H              -20.316             -3.255              -4.193              
H              -19.608             -4.326              -3.183              
H              -21.174             -4.517              -3.61               
H              -19.777             -4.094              -0.921              
N              -19.137             -0.938              -4.202              
C              -19.074             -0.293              -5.515              
C              -18.933             -1.381              -6.577              
O              -17.995             -2.182              -6.52               
C              -17.897             0.682               -5.604              
C              -18.031             1.688               -6.76               
C              -16.953             2.756               -6.763              
C              -15.673             2.252               -7.275              
N              -14.696             3.431               -7.327              
H              -18.343             -1.501              -3.809              
H              -19.922             0.204               -5.674              
H              -17.847             1.195               -4.756              
H              -17.065             0.159               -5.747              
H              -17.992             1.18                -7.629              
H              -18.933             2.131               -6.693              
H              -17.272             3.517               -7.335              
H              -16.837             3.084               -5.821              
H              -15.287             1.573               -6.67               
H              -15.766             1.903               -8.195              
H              -15.017             4.069               -8.016              
H              -14.679             3.859               -6.432              
H              -13.799             3.079               -7.565              
N              -19.89              -1.437              -7.516              
C              -19.907             -2.428              -8.595              
C              -19.978             -1.691              -9.928              
O              -20.876             -0.866              -10.138             
C              -21.117             -3.353              -8.472              
C              -21.277             -4.132              -7.166              
C              -22.622             -4.879              -7.161              
C              -20.105             -5.082              -6.972              
H              -20.631             -0.703              -7.408              
H              -19.058             -2.948              -8.564              
H              -21.941             -2.795              -8.587              
H              -21.066             -4.024              -9.213              
H              -21.256             -3.497              -6.4                
H              -22.645             -5.513              -7.931              
H              -22.712             -5.382              -6.304              
H              -23.363             -4.217              -7.245              
H              -19.252             -4.559              -6.938              
H              -20.221             -5.586              -6.115              
H              -20.068             -5.729              -7.735              
N              -19.046             -1.994              -10.842             
C              -19.033             -1.344              -12.166             
C              -19.097             0.184               -12.026             
O              -19.79              0.878               -12.785             
C              -20.15              -1.852              -13.085             
C              -19.973             -3.301              -13.501             
O              -18.859             -3.844              -13.359             
O              -20.97              -3.881              -13.979             
H              -18.357             -2.702              -10.548             
H              -18.151             -1.563              -12.592             
H              -21.013             -1.763              -12.596             
H              -20.158             -1.283              -13.901             
N              -18.361             0.712               -11.048             
C              -18.225             2.14                -10.78              
C              -19.457             2.777               -10.144             
O              -19.481             3.995               -9.977              
C              -17.796             2.924               -12.03              
C              -16.385             3.489               -11.932             
H              -17.865             -0.019              -10.46              
H              -17.461             2.247               -10.115             
H              -17.837             2.309               -12.815             
H              -18.433             3.681               -12.158             
O              -15.533             2.996               -11.174             
N              -16.138             4.533               -12.697             
H              -16.844             4.918               -13.291             
H              -15.223             4.957               -12.689             
N              -20.442             1.993               -9.7                
C              -21.644             2.508               -9.058              
C              -21.723             2.086               -7.595              
O              -21.677             0.898               -7.277              
C              -22.902             2.008               -9.759              
C              -22.949             2.406               -11.193             
H              -20.273             0.97                -9.855              
H              -21.582             3.515               -9.07               
H              -22.919             1.012               -9.693              
H              -23.694             2.39                -9.285              
O              -22.769             3.569               -11.503             
N              -23.152             1.443               -12.08              
H              -23.272             0.497               -11.767             
H              -23.187             1.653               -13.055             
N              -21.878             3.06                -6.703              
C              -22.147             2.771               -5.295              
C              -23.575             2.27                -5.115              
O              -24.5               2.72                -5.789              
C              -21.939             4.034               -4.449              
C              -20.503             4.432               -4.317              
C              -19.877             5.517               -4.895              
C              -19.503             3.735               -3.573              
N              -18.554             5.531               -4.536              
C              -18.293             4.455               -3.725              
C              -19.505             2.572               -2.793              
C              -17.105             4.046               -3.125              
C              -18.323             2.179               -2.197              
C              -17.144             2.902               -2.368              
H              -21.794             4.02                -7.084              
H              -21.528             2.033               -5.011              
H              -22.419             4.788               -4.878              
H              -22.288             3.868               -3.535              
H              -20.323             6.183               -5.482              
H              -17.88              6.216               -4.818              
H              -20.337             2.04                -2.669              
H              -16.263             4.575               -3.25               
H              -18.319             1.354               -1.63               
H              -16.306             2.574               -1.924              
N              -23.754             1.336               -4.19               
C              -25.047             0.765               -3.871              
C              -25.728             1.436               -2.688              
O              -25.547             2.631               -2.422              
H              -22.866             1.044               -3.704              
H              -25.656             0.831               -4.685              
H              -24.938             -0.228              -3.671              
N              -26.52              0.649               -1.949              
C              -27.233             1.145               -0.778              
C              -26.274             1.305               0.405               
O              -25.615             0.346               0.822               
C              -28.328             0.149               -0.375              
C              -29.136             0.641               0.813               
C              -30.232             -0.282              1.253               
N              -31.318             -0.411              0.295               
C              -32.295             0.467               0.066               
N              -32.376             1.667               0.685               
N              -33.199             0.112               -0.838              
H              -26.579             -0.335              -2.283              
H              -27.627             2.044               -0.991              
H              -28.939             0.035               -1.141              
H              -27.895             -0.702              -0.126              
H              -28.51              0.79                1.596               
H              -29.548             1.537               0.58                
H              -29.833             -1.193              1.418               
H              -30.604             0.062               2.125               
H              -31.34              -1.269              -0.269              
H              -31.648             1.904               1.332               
H              -33.125             2.273               0.496               
H              -33.153             -0.742              -1.337              
H              -33.974             0.744               -1.03               
N              -26.216             2.505               0.975               
C              -25.394             2.71                2.158               
C              -25.99              2.038               3.393               
O              -27.215             2.013               3.584               
C              -25.236             4.218               2.448               
C              -24.416             4.962               1.384               
C              -24.237             6.452               1.642               
O              -24.955             7.039               2.505               
O              -23.387             7.044               0.938               
H              -26.778             3.238               0.525               
H              -24.465             2.343               1.995               
H              -26.131             4.613               2.46                
H              -24.765             4.309               3.301               
H              -23.516             4.554               1.355               
H              -24.882             4.864               0.517               
N              -25.101             1.547               4.261               
C              -25.447             1.099               5.614               
C              -24.801             2.073               6.6                 
O              -23.592             2.311               6.534               
C              -24.976             -0.33               5.896               
C              -25.638             -1.329              4.933               
C              -25.281             -2.791              5.136               
O              -24.912             -3.183              6.269               
O              -25.388             -3.548              4.136               
H              -24.12              1.508               3.888               
H              -26.432             1.109               5.731               
H              -24.019             -0.369              5.742               
H              -25.251             -0.568              6.795               
H              -26.623             -1.243              5.04                
H              -25.37              -1.08               4.008               
N              -25.612             2.629               7.499               
C              -25.195             3.618               8.481               
C              -25.738             3.174               9.835               
O              -26.923             2.841               9.953               
C              -25.796             4.999               8.146               
C              -25.258             5.652               6.888               
C              -26.126             6.847               6.463               
N              -25.546             7.56                5.333               
C              -24.975             8.761               5.407               
N              -24.902             9.405               6.564               
N              -24.452             9.303               4.32                
H              -26.609             2.281               7.435               
H              -24.203             3.637               8.526               
H              -26.784             4.884               8.042               
H              -25.612             5.607               8.918               
H              -24.336             5.99                7.049               
H              -25.26              4.997               6.14                
H              -27.022             6.495               6.213               
H              -26.198             7.458               7.244               
H              -25.578             7.114               4.427               
H              -25.255             8.993               7.401               
H              -24.485             10.319              6.6                 
H              -24.468             8.803               3.451               
H              -24.037             10.213              4.36                
N              -24.889             3.192               10.85               
C              -25.333             3.142               12.248              
C              -24.647             4.278               13.015              
O              -23.802             4.989               12.474              
C              -25.125             1.736               12.847              
C              -23.726             1.223               12.765              
C              -22.859             1.895               13.776              
H              -23.883             3.244               10.579              
H              -26.314             3.311               12.267              
H              -25.406             1.768               13.813              
H              -25.736             1.1                 12.36               
H              -23.726             0.242               12.941              
H              -23.363             1.405               11.854              
O              -23.157             1.888               14.971              
N              -21.814             2.539               13.305              
H              -21.169             3.043               13.933              
H              -21.636             2.54                12.301              
N              -25.001             4.473               14.284              
C              -24.69              5.749               14.944              
C              -23.383             5.778               15.744              
O              -22.848             6.862               16.036              
C              -25.863             6.127               15.856              
O              -26.138             5.068               16.77               
H              -25.486             3.695               14.739              
H              -24.622             6.464               14.216              
H              -25.622             6.94                16.369              
H              -26.666             6.285               15.297              
H              -25.397             4.4                 16.732              
N              -22.862             4.632               16.134              
C              -21.694             4.587               17.003              
C              -20.472             5.043               16.221              
O              -20.232             4.586               15.1                
C              -21.536             3.169               17.575              
C              -20.3               3.086               18.436              
C              -22.782             2.821               18.372              
H              -23.342             3.783               15.778              
H              -21.838             5.229               17.756              
H              -21.405             2.548               16.808              
H              -20.454             2.447               19.193              
H              -19.525             2.764               17.889              
H              -20.084             3.99                18.81               
H              -23.588             3.174               17.897              
H              -22.852             1.827               18.46               
H              -22.72              3.235               19.281              
N              -19.682             5.936               16.822              
C              -18.526             6.534               16.152              
C              -18.822             7.962               15.679              
C              -17.769             8.525               14.749              
C              -16.645             9.196               15.238              
C              -17.904             8.389               13.379              
C              -15.687             9.697               14.353              
C              -16.96              8.893               12.507              
C              -15.852             9.548               12.983              
H              -19.957             6.167               17.799              
H              -18.285             5.931               15.395              
H              -19.68              7.949               15.192              
H              -18.864             8.543               16.475              
H              -16.523             9.318               16.212              
H              -18.71              7.91                13.01               
H              -14.876             10.169              14.722              
H              -17.096             8.774               11.503              
H              -15.166             9.917               12.359              
H              -21.9692            14.6184             12.4572             
H              -17.6822            6.52754             16.8457             
