38

C -0.4121313844	-0.3800005632	-0.1272226579
C 0.3457452752	0.8893711585	-0.5650893176
C -0.2267994982	2.191826669	0.0893086037
C 0.3435467778	0.9864308567	-2.107042465
C -0.7826805333	1.8710058055	1.4812094617
H 0.623786869	2.8654071327	0.2266985258
C -1.2399553217	2.9881196345	-0.7470411205
C -1.9917618355	0.9488937387	1.4031196167
H -0.0050629818	1.4100045323	2.0969334203
H -1.0623924843	2.7986983972	1.9886750632
C -1.6817013015	-0.4110625844	0.730210056
H -2.3770875981	0.7702246252	2.4085140308
H -2.7871602048	1.4713025536	0.8734977472
H -1.4433818188	-1.1048516752	1.5472688337
C -2.9694166241	-1.0306669075	0.0576463013
C 1.8284249951	0.8063164031	-0.0879087861
H 1.85231664	0.9748209849	0.990635679
H 2.3784760613	1.6351202675	-0.5416946179
C -4.1085097723	-1.0623500939	1.0958291964
C -3.4356725665	-0.233734769	-1.1710142526
C -2.7434161502	-2.4836416649	-0.396209711
H -4.982208885	-1.5700058694	0.6800105137
H -3.8078809491	-1.6075533961	1.9950167059
H -4.427922616	-0.0656688162	1.3999255211
H -4.3049647793	-0.7193700906	-1.6221649981
H -3.7343927404	0.7846586754	-0.9219946611
H -2.6560696595	-0.1847605531	-1.9329283759
H -3.6864679126	-2.9073100681	-0.7503074585
H -2.029962414	-2.5559374632	-1.2160101032
H -2.3906501428	-3.1142342879	0.4232582724
H 0.9107295843	1.858568051	-2.4430071556
H 0.7985651392	0.1077115881	-2.5633154658
H -0.666101657	1.0690996908	-2.5069421413
H -1.6306052072	3.8197473416	-0.1543473742
H -0.7723079263	3.4177228764	-1.6332379292
H -2.0891265711	2.3955125062	-1.0827102623
H 0.10785379343624163	-1.2936441670442953	-0.26757557598322146
H 2.341683676996711	-0.11985536249605266	-0.30004388197368426
