18

C 0.33284738	-1.6889707264	-0.328305204
C 4.9912361696	-0.5318707032	-0.8464239334
C 4.3269006523	-0.3810221381	1.5260504203
H 6.0344442379	-0.5057559406	-0.5547837236
C 1.763052126	-1.6644827803	0.2204010301
C 2.557540132	-0.5093668527	-0.3892595765
H 4.7854109935	-0.6058427184	-1.9076601678
H -0.2024497391	-2.5030850274	0.152940915
H 0.3771714337	-1.9457703401	-1.3940362417
H 1.724652024	-1.5600100945	1.3094452211
H 2.254690981	-2.6184355689	0.0099056873
C 4.0149573644	-0.4756854727	0.0503942669
H 2.5722301677	-0.6578108315	-1.4707454864
H 3.9371528653	-1.2441367839	2.0704671463
H 5.4030899643	-0.3387636724	1.6919075055
H 3.8828723899	0.5101059365	1.9750359442
H -0.2021373702738256	-0.7489720185986575	-0.1839036440489933
H 2.0442814501032895	0.4168049128960526	-0.17712448062631575
