15

C 1.6026451535	0.6796188016	0.4106572182
C 0.0582964198	0.6441274056	0.1371622096
C 0.1707279933	-0.8579428587	0.2443646565
C 1.7059795737	-0.5750342365	-0.1021321201
C -1.4726207208	0.4317215804	0.3009797926
C -1.3658444555	-0.8167203206	-0.2313686585
C 0.1214256898	-1.5422675394	1.724148031
H 2.2077239595671143	1.5032526764832213	0.7225199822429531
H 0.03765550085167785	0.9822626832610739	-0.9171562781489935
H 2.4714355749026846	-1.1530916621268457	-0.5829111476006711
H -2.22785457060274	1.0990396273479452	0.5896907896630137
H -2.041913747419463	-1.4507154513919462	-0.7661922483147651
H 0.9627034922914476	-1.3107139765263158	2.3699274487467106
H 0.12325370124144737	-2.617740883720395	1.5803746986480263
H -0.7477792014592105	-1.2990687627421054	2.332809860648684
