8

C -2.3344437295	-1.7250402676	-0.9976063016
C -3.0763920648	-0.8686085419	-2.0469580308
H -3.6852274484	-0.0988282266	-1.5799612894
H -2.3672559525	-0.3951577212	-2.7266969805
H -3.7342337211	-1.5102896891	-2.6385793084
H -1.6388724387751676	-1.0727568157275167	-0.4473551082328858
H -3.0663197455098685	-2.1935275830453946	-0.34830086597039467
H -1.786665094563158	-2.4850613706578946	-1.5376285472250002
