26

C         4.1213268469   -0.7298311474   -0.2735454104
C         4.3923826842    0.3417024805    0.5661596784
C         3.3419381934    1.1470877042    0.9813877495
C         2.0395305683    0.8976489526    0.5729127417
C         1.7722319516   -0.1795693387   -0.2684988859
C         2.8263896498   -0.9895864263   -0.6910349820
N         0.4665823341   -0.5088364703   -0.6666833857
N        -0.4665823341    0.5088364703   -0.6666833857
C        -1.7722319516    0.1795693387   -0.2684988859
C        -2.8263896498    0.9895864263   -0.6910349820
C        -4.1213268469    0.7298311474   -0.2735454104
C        -4.3923826842   -0.3417024805    0.5661596784
C        -3.3419381934   -1.1470877042    0.9813877495
C        -2.0395305683   -0.8976489526    0.5729127417
H         0.4399713541   -1.0767383900   -1.4937559988
H        -0.4399713541    1.0767383900   -1.4937559988
H         4.9249114785   -1.3706951127   -0.6127292741
H         5.4039266760    0.5454595041    0.8892430762
H         3.5334600433    1.9874636554    1.6362916160
H         1.2301314226    1.5294026896    0.9031409066
H         2.6294740217   -1.8295832276   -1.3462590642
H        -2.6294740217    1.8295832276   -1.3462590642
H        -4.9249114785    1.3706951127   -0.6127292741
H        -5.4039266760   -0.5454595041    0.8892430762
H        -3.5334600433   -1.9874636554    1.6362916160
H        -1.2301314226   -1.5294026896    0.9031409066
