51

C         2.5271623156   -1.4289225993   -0.5470733066
C         4.0295078919   -1.3162781916   -0.2891445129
C         4.5292210873    0.0906897752   -0.5793233319
C         3.7785113184    1.0972163098    0.2850223435
C         2.2735092119    0.9828462853    0.1699245103
C         1.6458892006   -0.4160903551    0.2304612955
C         0.2198677387   -0.4146859524   -0.4231440665
C        -0.5896564825    0.8540723703   -0.1549968375
C         0.0385981904    1.9948399042    0.1101088200
C         1.5027606654    2.0655648421    0.1639228056
C        -0.5659098946   -1.7179880768   -0.1270437318
C        -2.0516239735    0.7697347566   -0.5045902877
C        -2.0416518181   -1.6999031116   -0.5486517851
C        -2.7711793863   -0.4829055816    0.0277075029
C         1.5984164487   -0.7964812514    1.7305310126
C        -3.0056919786    1.9266218311   -0.1930299806
C        -4.1909074820   -0.2344775464   -0.5359169913
C        -2.7884378686   -0.5287057119    1.5677638835
C        -4.4129596586    1.2866535979   -0.3248106034
O         5.9187022944    0.2079823273   -0.4170309945
C        -5.3226142212   -1.1067051877   -0.0002417845
H         2.1997579556   -2.4456068272   -0.3238590706
H         2.3619983184   -1.2801447934   -1.6182920527
H         4.2670681211   -1.5747588130    0.7495034401
H         4.5673556338   -2.0296707487   -0.9174588417
H         4.3481687975    0.3198104912   -1.6316362770
H         4.0782529328    0.9251718526    1.3274718099
H         4.0967567162    2.1094192650    0.0347417977
H         0.3846588489   -0.3914546687   -1.5095709027
H        -0.5147700722    2.9191003579    0.2111537864
H         1.9562206538    3.0495388958    0.1939213171
H        -0.0698108976   -2.5517627496   -0.6268418646
H        -0.5268952831   -1.9404994289    0.9369100569
H        -2.0615117049    0.6509472353   -1.5974601671
H        -2.1169236779   -1.6734952252   -1.6405821518
H        -2.5093436370   -2.6348331445   -0.2264619152
H         2.5619762021   -0.6188296159    2.2082058848
H         0.8604786461   -0.1902728414    2.2581400224
H         1.3565256017   -1.8489161172    1.8826512561
H        -2.8671150137    2.7677026976   -0.8733233900
H        -2.8434843103    2.3056750752    0.8174798847
H        -4.1282125266   -0.4136463569   -1.6143750652
H        -1.7950279183   -0.3844673453    1.9912805473
H        -3.4289918706    0.2450733058    1.9922471288
H        -3.1636552874   -1.4915179410    1.9223991560
H        -4.9776547356    1.7141230346   -1.1554969551
H        -5.0063600697    1.4691818500    0.5739175174
H         6.1436467258    0.0093188842    0.4804500178
H        -5.4841586749   -0.9596720363    1.0695629777
H        -5.1247983921   -2.1683215209   -0.1684580332
H        -6.2600987835   -0.8648475439   -0.5078864053
