12

C 2.3021227489	-0.4435164394	-0.0866159555
C 2.8185659551	-1.0336681795	-1.2321241029
C 4.1895180941	-1.023427751	-1.4811667919
C 5.0592433069	-0.4292117968	-0.5870105334
C 4.5520076753	0.1606776535	0.5664152463
C 3.1918953838	0.1540754962	0.8102337782
H 2.1748360855	-1.5117428523	-1.9533547591
H 4.5677257601	-1.4886798227	-2.3816231303
H 6.1235578801	-0.4241871411	-0.7800979968
H 5.2202852514	0.6271965597	1.2776067788
H 2.8134673535	0.6187095909	1.7104482916
H 1.2466914812919463	-0.41992424865637584	0.14544715757382548
