17

F -0.6907530337	0.7052843176	-1.7176690849
F -1.0356899013	-1.364304924	-2.199144469
F -1.9265174218	-1.9051278637	0.1789235163
C -0.6534721285	-0.5393382233	-1.2299490034
F -1.1370575215	-0.0710306547	1.0011365089
C -1.6772952313	-0.624745314	-0.0804385493
C -3.0273077897	0.0753352067	-0.3571240861
C -4.1405378918	-0.4198889708	0.5673698868
F -2.8568619456	1.3864693839	-0.2356885019
F -3.3982654314	-0.1834312555	-1.6109292633
F -3.7118542779	-0.3784266525	1.8483992238
C -5.4251548012	0.3959807506	0.501996522
H -4.3795899556	-1.4435124383	0.2965838315
F -6.3440919758	-0.2018938908	1.2332119269
F -5.2676663919	1.6111153193	0.9670122399
F -5.8728174536	0.4728119669	-0.7321667708
H 0.366802453481208	-0.8220682091234899	-0.8944130894496645
