18

C -0.1727028408	2.1046700392	-0.0763624185
C 7.5131e-05	0.7355369072	0.5630236731
C 1.3733836139	0.1224454753	0.3062878572
C 1.9195842071	-0.7028792017	1.2899259906
C 3.1583232327	-1.2975407056	1.1194734915
C 3.8834549073	-1.0757025769	-0.0447247226
C 3.3532947076	-0.2589944182	-1.0290389743
C 2.1068713431	0.3344785953	-0.8582222514
H 1.3639680352	-0.8846664785	2.2012155829
H 3.5603471858	-1.9329326267	1.897532873
H 4.8528808622	-1.5363389983	-0.1801954454
H 3.9071184687	-0.0784833138	-1.9409297259
H 1.7142042539	0.9592728408	-1.6465147844
H -0.048203364	0.9473784888	1.6319013211
H 0.6749142382	2.7598062915	0.1085743928
F -0.3489488353	2.0231495852	-1.4086665487
F -1.2711452104	2.6987747607	0.41949559
H -0.8403576852436243	0.07067355200469794	0.3286707053704698
