10

C 4.108188663	-1.3184917366	0.0
C 3.8659710595	1.5499963579	0.0
C 5.0587664319	0.9156033165	0.0
C 5.1989846435	-0.5302133787	0.0
H 3.7890988617	2.6273102692	0.0
H 5.966064333	1.5070210124	0.0
H 6.19298191	-0.9540509768	0.0
H 4.1859081672	-2.396812774	0.0
H 3.1858971907808216	-0.875120464830137	0.0
H 3.0148612589520547	0.9818993880041095	0.0
