17

C 2.3691564125	1.4475266633	-0.3818749371
C 0.9918061354	0.7594255407	-0.5777821911
C 1.373975442	-0.7158808653	-0.251707561
H 1.0552761842	0.6926333545	-2.7540351258
H 0.1282498253	2.038263652	-2.0911133055
H -0.5539832144	0.4134032739	-2.0699103275
C -0.0550677624	1.0013396512	0.533454693
C 0.3716041655	0.9821523567	-1.9556800272
H 2.3653505279	2.1724474111	0.4294536664
H 2.7403738397	1.9344140039	-1.2816631962
H -0.8223591916	1.7118060038	0.2261414862
H 0.4017855383	1.364738358	1.4556158919
H 2.971980234648026	0.5837242890486841	-0.09804353139407895
H 2.005076207856376	-1.1455630255134228	-1.0242315044651007
H 2.07946572810493	-0.5545231726654929	0.5377068348169014
H 0.4660578734020133	-1.1663028895879195	0.1407251876610739
H -0.48603994245306126	0.04373629046190464	0.6837428383551021
