48

C         0.8649026090    0.4490311027    1.6735101007
C         1.6133666691    0.0534467386    0.6424525387
C         2.7749354354    0.8871136608    0.1976207037
C         3.6533270714    1.4574656570    1.1194161671
C         4.7110366753    2.2522705917    0.6987533721
C         4.9141039925    2.4871050642   -0.6526485526
C         4.0542603837    1.9148757208   -1.5810384932
C         3.0014360104    1.1174335195   -1.1611070614
H         3.5190812007    1.2641678997    2.1747391948
H         5.3828752630    2.6801440023    1.4313724671
H         5.7397705064    3.1041685076   -0.9815712921
H         4.2040313542    2.0897238552   -2.6384019119
H         2.3405702608    0.6782825294   -1.8950901859
C         1.3711245117   -1.2083041296   -0.1346121833
C         0.2476549858   -1.3916742031   -0.9412593882
C         0.0636948440   -2.5897627909   -1.6335312861
C         0.9925160657   -3.6053487109   -1.5285297195
C         2.1233590658   -3.4296905666   -0.7362547394
C         2.3086414395   -2.2408915254   -0.0554274137
N        -0.6469681404   -0.2942171309   -1.0712442987
H        -0.8093030719   -2.7002787210   -2.2572067571
H         0.8450501106   -4.5293461605   -2.0712447719
H         2.8604015947   -4.2176770735   -0.6566805484
H         3.1897429143   -2.1025279258    0.5564375320
N        -1.7571218698   -0.5701176216   -1.4876864154
C        -2.6410231089    0.5327400788   -1.6490648667
C        -3.9255872827    0.2157810817   -2.0647659502
C        -4.8668315630    1.2195678599   -2.2548803251
C        -4.5183276485    2.5415943721   -2.0307006634
C        -3.2273336218    2.8591045967   -1.6155981388
C        -2.2875317385    1.8628870574   -1.4232636706
H        -4.1742959903   -0.8225623212   -2.2330940909
H        -5.8677001341    0.9665661637   -2.5776658224
H        -5.2469060225    3.3276980157   -2.1790126515
H        -2.9552483730    3.8919534992   -1.4430672019
H        -1.2847449789    2.0987595730   -1.1029399405
H         1.1041230172    1.4141728510    2.1050323416
C        -0.3006879024   -0.2184642496    2.3054910469
C        -1.3649461770    0.5768554833    2.7353277512
C        -2.4741144660    0.0182539436    3.3506184008
C        -2.5329548315   -1.3515084308    3.5661580583
C        -1.4732138723   -2.1514298118    3.1632049823
C        -0.3673274023   -1.5922545920    2.5397686921
H        -1.3260778930    1.6468707297    2.5759007164
H        -3.2916117422    0.6539964241    3.6641619747
H        -3.3948820457   -1.7911228517    4.0504684518
H        -1.5030764982   -3.2188812133    3.3383427398
H         0.4522257217   -2.2299068566    2.2452538574
