26

C -0.8680482178	0.3941413568	-0.8252519415
C -0.1025314479	-0.3336211108	-1.6101989388
N 0.5179154662	-1.0011687703	-2.4012573694
C -0.5677962587	1.8470753335	-0.6386511191
C -2.0309914913	-0.2553351156	-0.1462834321
C -2.3544609515	0.0765109318	1.1704180053
C -3.4170497562	-0.5382294593	1.8144765345
C -4.1755484607	-1.4988584053	1.158796164
C -3.8637781955	-1.8346361839	-0.1503967425
C -2.8057305196	-1.2139616626	-0.7994896591
H -1.767063985	0.8174691844	1.6945323366
H -5.0040817616	-1.9779765967	1.6632196767
H -4.4526079928	-2.5750324954	-0.6760331575
H -2.5835031548	-1.4695693697	-1.8269795614
C -1.5907747151	2.7912111559	-0.7526647479
C -1.3250391558	4.1430048702	-0.608637579
C -0.0314280166	4.5801860445	-0.3501979353
C 0.9899499489	3.6512940309	-0.2307721852
C 0.722895649	2.2946290212	-0.3663384055
H -2.599508291	2.4619071501	-0.9609873543
H -2.1302318959	4.8596518256	-0.7045539086
H 0.1748650757	5.6364047221	-0.2384384501
H 1.999643212	3.9786607562	-0.019655201
H 1.5216198938	1.5761255219	-0.2462446375
H -3.6494157645	-0.2692421977	2.836603852
H 1.346680237742857	-1.5495689767489795	-2.19223882722449
