11

C -1.2071774891	-1.2055617303	-0.2953987458
C -1.6640088354	0.1646815647	0.1858045832
O 0.0630001934	-1.4783290815	0.2059972046
O -2.8911799042	0.5241952006	-0.3798315642
H -3.5271457213	-0.1508941342	-0.1871935615
O -2.0713955927	-2.1967345817	0.1210751473
H -1.8807448927	-2.3931043716	1.0290742495
H -1.2089173731	-1.2333037902	-1.3881217869
H -1.7354225121	0.1351995971	1.2800943732
H -0.9487576783684211	0.9063878737986844	-0.08946983800526317
H 0.7520964972830986	-0.868892737243662	-0.08192362535070422
