9

C 1.0717803496	-0.5861645363	-0.2154951444
C 2.3978675294	-1.1191917554	0.309273137
O 3.492391646	-0.4941702279	-0.2838194624
H 3.3862483858	0.4444388967	-0.2077615748
H 1.1241337054	-0.5690440822	-1.3096860465
H 2.4176647508	-1.0300804604	1.401893874
H 2.4548876888	-2.1783163493	0.0656574826
H 0.31164318964647875	-1.2584293696549298	0.10210824533943663
H 0.8293055241013159	0.39884000778684203	0.13997265057500002
