48

H 9.654	0.081	-6.096
C 6.218	-1.121	-3.608
C 7.604	-1.685	-3.332
O 8.528	-0.946	-2.978
C 5.185	-2.054	-2.977
C 3.808	-1.514	-2.869
C 3.541	-0.453	-2.029
C 2.771	-2.092	-3.567
C 2.265	0.027	-1.891
C 1.49	-1.615	-3.439
C 1.234	-0.553	-2.6
H 6.148	-0.16	-3.12
H 5.128	-2.957	-3.566
H 5.522	-2.314	-1.985
H 4.352	0.0	-1.478
H 2.975	-2.927	-4.218
H 2.069	0.859	-1.229
H 0.685	-2.072	-3.995
H 0.227	-0.178	-2.492
N 7.781	-2.96	-3.54
C 9.042	-3.592	-3.23
C 10.029	-3.496	-4.396
O 10.564	-4.496	-4.863
C 8.843	-5.06	-2.755
O 8.019	-5.785	-3.69
C 8.184	-5.094	-1.381
H 7.058	-3.509	-3.922
H 9.465	-3.028	-2.41
H 9.809	-5.538	-2.693
H 8.088	-6.724	-3.437
H 7.217	-4.615	-1.433
H 8.807	-4.571	-0.67
H 8.062	-6.12	-1.068
N 10.239	-2.275	-4.869
C 11.174	-2.003	-5.957
C 11.575	-0.534	-5.972
O 12.75	-0.207	-5.864
C 10.596	-2.41	-7.323
C 11.557	-2.142	-8.468
O 12.438	-2.98	-8.73
O 11.451	-1.091	-9.127
H 9.748	-1.54	-4.445
H 12.06	-2.591	-5.765
H 10.367	-3.466	-7.31
H 9.688	-1.855	-7.497
N 10.593	0.362	-6.069
H 6.041850340136055	-0.9514013605442178	-4.65252380952381
H 10.794224489795917	1.3625714285714285	-6.112020408163265
