64

C 9.392	-2.81	2.827
O 8.549	-3.64	3.206
N 10.712	-2.984	2.947
C 11.376	-4.144	3.583
C 11.248	-5.429	2.765
O 12.252	-6.042	2.436
C 10.92	-4.37	5.028
C 11.528	-5.617	5.613
O 10.936	-6.714	5.483
O 12.594	-5.519	6.228
H 11.324	-2.304	2.581
H 12.429	-3.898	3.596
H 11.216	-3.526	5.632
H 9.845	-4.469	5.049
N 9.998	-5.771	2.455
C 9.513	-6.938	1.703
C 8.839	-7.986	2.58
O 7.864	-8.586	2.159
C 10.474	-7.532	0.66
O 11.565	-8.283	1.274
H 9.315	-5.144	2.783
H 8.672	-6.508	1.176
H 9.924	-8.163	-0.02
H 10.907	-6.708	0.115
N 9.37	-8.255	3.76
C 8.661	-9.105	4.701
C 7.735	-8.294	5.622
O 6.564	-8.625	5.805
C 9.562	-10.149	5.436
C 10.737	-9.671	6.304
C 10.262	-9.052	7.611
C 11.679	-10.824	6.583
H 10.228	-7.857	4.022
H 7.973	-9.64	4.06
H 8.918	-10.734	6.075
H 9.953	-10.817	4.682
H 11.28	-8.927	5.736
H 9.62	-8.21	7.379
O 13.339	-10.0	1.175
P 12.339	-9.282	0.346
O 12.811	-8.556	-0.858
O 11.264	-10.328	-0.145
C 10.583	-11.203	0.841
N 8.266	-7.18	6.149
C 9.603	-12.161	0.125
H 11.109	-8.706	8.185
H 9.703	-9.778	8.179
H 12.502	-10.479	7.191
H 12.061	-11.212	5.65
H 9.2	-6.954	5.922
H 11.148	-11.605	7.105
C 8.564	-11.319	-0.602
C 10.37	-12.998	-0.902
H 11.334	-11.775	1.367
H 10.034	-10.589	1.54
H 8.028	-10.713	0.113
H 7.87	-11.968	-1.115
H 9.057	-10.678	-1.319
H 9.688	-13.666	-1.406
H 11.132	-13.572	-0.396
H 10.835	-12.343	-1.625
H 9.10931543624161	-1.9123892617449665	2.3286375838926174
H 7.7705714285714285	-6.575632653061224	6.807489795918367
H 9.12853947368421	-12.87621052631579	0.8556973684210527
