67

C -10.88	1.308	6.189
C -11.056	0.13	5.235
O -12.076	-0.575	5.216
C -12.18	2.107	6.351
C -13.232	1.326	7.085
O -12.976	0.889	8.23
O -14.353	1.166	6.543
H -10.571	0.898	7.141
H -11.991	3.027	6.884
H -12.557	2.329	5.363
N -9.999	-0.119	4.486
C -9.974	-1.173	3.527
C -9.726	-2.482	4.267
O -9.383	-2.477	5.446
C -8.881	-0.933	2.402
C -7.457	-1.13	2.897
C -9.128	-1.77	1.166
H -9.21	0.436	4.645
H -10.95	-1.219	3.066
H -8.96	0.106	2.12
H -7.352	-2.141	3.266
H -7.222	-0.423	3.679
H -6.781	-1.001	2.063
H -9.112	-2.816	1.43
H -8.355	-1.57	0.439
H -10.092	-1.519	0.745
N -9.908	-3.558	3.604
C -9.658	-4.861	4.166
C -8.908	-5.62	3.136
O -9.465	-5.967	2.105
C -10.948	-5.649	4.569
C -11.754	-5.117	5.781
C -12.519	-3.83	5.486
C -13.298	-3.336	6.71
N -14.068	-2.099	6.409
H -10.172	-3.488	2.664
H -9.021	-4.728	5.028
H -11.614	-5.675	3.719
H -10.643	-6.664	4.787
H -12.465	-5.872	6.081
H -11.066	-4.939	6.595
H -11.817	-3.066	5.191
H -13.213	-4.013	4.679
H -13.982	-4.109	7.026
H -12.598	-3.13	7.506
H -13.434	-1.332	6.098
H -14.629	-1.745	7.214
H -14.746	-2.257	5.628
N -7.648	-5.798	3.357
C -6.794	-6.478	2.425
C -5.912	-5.508	1.571
C -6.766	-4.462	0.856
C -5.126	-6.304	0.533
C -5.963	-3.472	0.046
H -7.269	-5.527	4.227
H -7.415	-7.069	1.768
H -5.213	-5.013	2.227
H -7.45	-4.961	0.186
H -7.334	-3.911	1.592
H -4.498	-5.633	-0.034
H -5.832	-6.774	-0.137
H -4.525	-7.056	1.022
H -5.287	-2.944	0.702
H -6.631	-2.767	-0.426
H -5.398	-4.0	-0.706
H -10.059666666666667	1.9070544217687073	5.844707482993197
H -6.140510067114094	-7.132926174496644	2.988724832214765
