61

N -9.516	0.639	-3.774
C -10.812	1.216	-4.116
C -10.766	1.955	-5.467
C -9.961	3.251	-5.535
C -9.886	3.74	-6.97
C -10.595	4.316	-4.662
H -8.746	0.812	-4.366
H -11.027	1.929	-3.336
H -10.354	1.276	-6.2
H -11.783	2.178	-5.753
H -8.955	3.071	-5.182
H -9.404	2.99	-7.581
H -9.317	4.657	-7.009
H -10.884	3.921	-7.341
H -10.621	3.972	-3.638
H -11.602	4.509	-5.002
H -10.014	5.224	-4.72
C -8.113	-0.57	-7.013
O -9.305	-0.817	-6.774
N -7.114	-1.271	-6.554
C -7.263	-2.445	-5.758
C -7.966	-2.094	-4.461
O -8.993	-2.647	-4.145
C -5.891	-2.983	-5.45
C -5.855	-4.403	-5.063
C -6.01	-4.73	-3.748
C -5.694	-5.417	-5.995
C -6.007	-6.01	-3.336
C -5.694	-6.732	-5.606
C -5.722	-7.073	-4.437
O -5.888	-8.324	-3.801
H -6.202	-0.984	-6.781
H -7.811	-3.179	-6.328
H -5.265	-2.869	-6.321
H -5.468	-2.404	-4.642
H -6.133	-3.938	-3.025
H -5.57	-5.16	-7.037
H -6.146	-6.199	-2.284
H -5.567	-7.486	-6.373
H -5.14	-8.844	-4.146
N -7.406	-1.141	-3.74
C -7.944	-0.668	-2.478
C -9.328	-0.078	-2.677
O -10.206	-0.288	-1.855
C -6.986	0.37	-1.814
C -5.675	-0.324	-1.412
C -7.646	1.044	-0.609
C -4.595	0.599	-0.901
H -6.58	-0.722	-4.076
H -8.027	-1.524	-1.824
H -6.762	1.135	-2.543
H -5.881	-1.044	-0.634
H -5.285	-0.85	-2.271
H -7.891	0.299	0.133
H -8.554	1.527	-0.944
H -6.974	1.778	-0.188
H -4.343	1.316	-1.669
H -3.719	0.02	-0.646
H -4.951	1.121	-0.026
H -7.8303154362416105	0.26269798657718124	-7.597214765100671
H -11.589724832214765	0.44258389261744957	-4.167704697986577
