48

H 8.22	-13.802	0.638
H 10.082	-13.632	2.622
H 6.782	-11.758	1.132
H 6.573	-11.377	4.049
H 6.539	-10.021	2.945
H 4.486	-12.205	3.099
H 4.336	-10.45	3.434
H 5.82	-9.748	1.181
H 5.644	-10.171	-1.318
H 3.91	-10.284	-1.035
H 5.605	-7.819	-0.648
H 3.869	-7.943	-0.328
C 3.88	-6.277	-2.457
O 3.472	-5.632	-3.425
S 4.351	-7.967	-2.593
C 3.912	-5.624	-1.142
C 3.334	-4.431	-0.923
C 3.448	-3.816	0.425
C 2.595	-2.566	0.593
C 1.109	-2.881	0.521
C 0.261	-1.649	0.781
C -1.205	-2.014	0.716
C 8.929	-13.177	1.163
O 9.936	-14.01	1.738
C 8.208	-12.472	2.328
O 8.669	-12.571	3.47
N 7.108	-11.794	2.058
C 6.312	-11.073	3.048
C 4.804	-11.211	2.831
C 4.341	-10.997	1.398
O 3.356	-11.588	0.959
N 5.07	-10.155	0.692
C 4.825	-9.807	-0.716
C 4.686	-8.313	-0.929
H 4.296	-6.171	-0.265
H 2.939	-3.841	-1.769
H 3.141	-4.544	1.162
H 4.482	-3.554	0.596
H 2.844	-1.868	-0.194
H 2.811	-2.122	1.553
H 0.878	-3.633	1.261
H 0.88	-3.261	-0.463
H 0.46	-0.906	0.021
H 0.487	-1.257	1.762
H -1.422	-2.762	1.463
H -1.434	-2.406	-0.264
H -1.802	-1.133	0.904
H 9.40346052631579	-12.46178947368421	0.4323026315789473
