70

H 3.938	-0.606	7.539
H 5.758	-2.031	6.732
H 6.532	-2.021	8.317
H 7.44	-1.522	6.89
H 4.773	-1.608	9.604
H 3.441	-0.49	9.909
H 5.1	0.004	10.25
N 8.553	1.408	6.752
H 7.816	1.982	6.446
C 3.392	3.825	6.533
O 4.135	3.171	7.282
N 3.691	4.057	5.263
C 4.937	3.599	4.654
C 6.131	4.212	5.387
O 7.162	3.556	5.603
C 4.997	3.929	3.125
C 6.384	3.681	2.563
C 3.993	3.08	2.359
H 3.034	4.536	4.708
H 4.965	2.528	4.78
H 4.74	4.968	2.982
H 7.085	4.325	3.079
H 6.396	3.913	1.508
H 6.663	2.65	2.719
H 4.047	3.315	1.306
H 2.996	3.286	2.72
H 4.216	2.033	2.503
N 5.958	5.438	5.82
C 6.985	6.162	6.549
C 7.211	5.549	7.932
O 8.268	5.688	8.519
C 6.588	7.619	6.689
C 7.733	8.49	7.131
O 7.948	8.725	8.324
N 8.492	8.946	6.171
H 5.117	5.9	5.607
H 7.903	6.104	5.983
H 6.232	7.981	5.736
H 5.795	7.699	7.418
H 8.264	8.681	5.251
H 9.242	9.543	6.367
N 6.223	4.849	8.419
C 6.306	4.196	9.709
C 7.03	2.879	9.573
O 8.013	2.623	10.248
C 4.907	3.916	10.232
C 4.077	5.142	10.423
C 4.639	6.03	11.488
O 4.714	5.58	12.646
O 4.954	7.2	11.205
H 5.4	4.761	7.895
H 6.817	4.84	10.407
H 4.397	3.272	9.531
H 4.987	3.407	11.181
H 4.092	5.667	9.479
H 3.065	4.861	10.677
N 6.523	2.063	8.684
C 7.007	0.712	8.483
C 8.401	0.704	7.849
O 9.32	0.052	8.351
C 6.014	-0.073	7.578
C 4.592	-0.029	8.175
C 6.469	-1.519	7.362
C 4.469	-0.571	9.588
H 5.766	2.389	8.149
H 7.048	0.218	9.442
H 5.995	0.411	6.613
H 4.249	0.995	8.189
H 2.483221476510067	4.271711409395973	6.894557046979866
H 9.421734693877552	1.3837142857142857	6.24130612244898
