49

H 2.858	-2.399	-4.728
C -6.569	-4.927	-0.35
O -7.292	-5.218	-1.301
N -5.333	-4.591	-0.489
C -4.686	-4.545	-1.75
C -3.23	-4.889	-1.601
O -2.646	-4.656	-0.558
C -4.857	-3.167	-2.338
S -4.42	-1.852	-1.197
H -4.805	-4.341	0.305
H -5.15	-5.264	-2.404
H -4.23	-3.08	-3.214
H -5.892	-3.053	-2.623
H -3.751	-2.411	-0.201
N -2.655	-5.421	-2.629
C -1.274	-5.779	-2.616
C -0.507	-4.645	-3.216
O -0.862	-4.139	-4.298
C -1.003	-7.084	-3.418
C 0.483	-7.438	-3.428
C -1.802	-8.229	-2.841
H -3.175	-5.54	-3.455
H -0.951	-5.913	-1.596
H -1.323	-6.928	-4.438
H 0.827	-7.586	-2.415
H 0.63	-8.346	-3.995
H 1.04	-6.634	-3.887
H -2.855	-7.996	-2.887
H -1.6	-9.124	-3.409
H -1.511	-8.382	-1.812
N 0.518	-4.241	-2.541
C 1.314	-3.159	-2.982
C 2.718	-3.651	-3.226
O 3.199	-4.579	-2.557
C 1.35	-2.011	-1.921
C -0.043	-1.444	-1.671
C 1.98	-2.486	-0.603
H 0.75	-4.665	-1.68
H 0.907	-2.765	-3.901
H 1.956	-1.211	-2.32
H -0.697	-2.226	-1.315
H 0.019	-0.67	-0.918
H -0.437	-1.033	-2.59
H 2.996	-2.809	-0.776
H 1.979	-1.682	0.117
H 1.423	-3.324	-0.205
N 3.338	-3.081	-4.203
H -6.943120805369128	-4.927	0.6404429530201343
H 4.270571428571429	-3.3009591836734695	-4.435448979591837
