61

C 7.345	-1.382	-2.867
C 8.285	-0.995	-3.969
O 9.071	-1.828	-4.477
C 8.101	-1.809	-1.638
C 7.208	-2.03	-0.462
C 6.769	-0.956	0.283
C 6.798	-3.304	-0.092
C 5.951	-1.13	1.355
C 5.98	-3.492	0.982
C 5.556	-2.391	1.708
O 4.715	-2.541	2.769
H 6.739	-0.52	-2.619
H 8.634	-2.726	-1.841
H 8.807	-1.034	-1.375
H 7.084	0.037	0.0
H 7.135	-4.167	-0.648
H 5.619	-0.275	1.925
H 5.689	-4.501	1.232
H 4.913	-3.329	3.299
N 8.194	0.247	-4.341
C 8.939	0.8	-5.411
C 10.437	0.76	-5.106
O 10.881	1.145	-4.015
C 8.498	2.254	-5.63
O 7.06	2.308	-5.773
C 9.146	2.804	-6.87
H 7.595	0.847	-3.841
H 8.728	0.247	-6.313
H 8.794	2.846	-4.777
H 6.79	1.492	-6.214
H 8.838	2.217	-7.722
H 8.876	3.84	-7.004
H 10.214	2.694	-6.744
N 11.198	0.271	-6.055
C 12.624	0.197	-5.907
C 13.066	-1.096	-5.269
O 14.234	-1.472	-5.358
H 10.785	-0.055	-6.885
H 13.076	0.27	-6.884
H 12.96	1.023	-5.297
N 12.157	-1.78	-4.624
C 12.499	-3.029	-3.964
C 12.029	-3.027	-2.515
C 12.569	-1.874	-1.725
C 13.866	-1.886	-1.254
C 11.779	-0.771	-1.45
C 14.366	-0.83	-0.531
C 12.265	0.287	-0.728
C 13.557	0.254	-0.27
O 14.054	1.317	0.437
H 11.247	-1.411	-4.579
H 13.575	-3.112	-3.971
H 10.952	-2.99	-2.476
H 12.363	-3.937	-2.039
H 14.493	-2.741	-1.462
H 10.763	-0.752	-1.818
H 15.383	-0.861	-0.172
H 11.632	1.136	-0.521
H 13.352	1.636	1.016
H 6.696448979591836	-2.1382789115646257	-3.1858163265306123
H 12.086080536912752	-3.8857181208053695	-4.486073825503356
