61

H 0.175	4.219	6.252
H -0.334	3.994	4.59
H 0.208	7.883	6.183
H 0.496	6.448	7.166
H 1.672	6.93	5.941
N -0.843	8.36	1.451
C -0.593	9.163	0.285
C 0.877	8.971	-0.155
O 1.781	8.884	0.7
C -0.896	10.632	0.623
O -0.907	11.455	-0.529
H -1.073	8.818	2.288
H -1.252	8.831	-0.503
H -1.866	10.695	1.092
H -0.147	11.003	1.307
H -1.665	11.197	-1.068
N 1.127	8.857	-1.47
C 2.465	8.598	-2.005
C 2.191	8.226	-3.452
C 0.973	9.005	-3.794
C 0.128	8.987	-2.554
H 2.95	7.769	-1.512
H 3.038	8.511	-4.058
H 2.019	7.163	-3.536
H 1.245	10.017	-4.055
H 0.454	8.53	-4.614
H -0.427	9.908	-2.461
H -0.541	8.14	-2.563
C -2.608	3.031	2.405
C -2.512	4.517	2.605
O -3.525	5.214	2.792
C -3.127	2.777	1.007
C -3.181	1.348	0.531
C -3.598	1.332	-0.921
C -1.839	0.677	0.711
H -1.614	2.619	2.481
H -4.128	3.177	0.949
H -2.508	3.338	0.322
H -3.922	0.808	1.103
H -2.897	1.919	-1.496
H -3.639	0.319	-1.299
H -4.574	1.786	-1.016
H -1.596	0.669	1.764
H -1.9	-0.334	0.337
H -1.086	1.232	0.171
N -1.318	4.999	2.548
C -1.07	6.385	2.756
C -0.77	7.054	1.446
O -0.472	6.377	0.451
C 0.075	6.631	3.753
C -0.102	6.05	5.162
C 0.305	4.577	5.24
C 0.622	6.885	6.187
H -0.576	4.393	2.32
H -1.975	6.811	3.159
H 0.973	6.205	3.333
H 0.216	7.699	3.844
H -1.158	6.085	5.385
H 1.334	4.457	4.938
H -3.215061224489796	2.5687891156462586	3.146721088435374
H 3.112026845637584	9.471953020134228	-1.982020134228188
