41

C -6.101	1.022	-8.165
O -5.064	1.497	-7.675
N -6.109	-0.07	-8.883
C -4.882	-0.747	-9.248
C -4.061	0.176	-10.143
O -4.58	0.716	-11.118
C -5.173	-2.083	-9.982
C -3.885	-2.774	-10.389
C -6.007	-3.004	-9.105
H -6.963	-0.427	-9.208
H -4.326	-0.947	-8.344
H -5.737	-1.867	-10.876
H -3.303	-2.998	-9.508
H -4.113	-3.689	-10.916
H -3.319	-2.117	-11.033
H -6.937	-2.519	-8.848
H -6.214	-3.917	-9.644
H -5.459	-3.234	-8.203
N -2.813	0.38	-9.799
C -1.986	1.267	-10.576
C -1.871	2.645	-9.964
O -1.479	3.6	-10.637
H -2.427	-0.099	-9.034
H -0.995	0.843	-10.637
H -2.397	1.358	-11.571
N -2.248	2.769	-8.709
C -2.074	4.027	-7.987
C -0.904	3.886	-7.109
O -0.612	2.799	-6.589
C -3.285	4.451	-7.109
C -4.514	4.965	-7.835
O -4.385	5.594	-8.896
O -5.652	4.809	-7.304
H -2.63	2.004	-8.23
H -1.792	4.84	-8.646
H -3.598	3.578	-6.559
H -2.953	5.201	-6.408
N -0.23	4.951	-6.967
H -0.516	5.757	-7.446
H -7.040489932885906	1.484765100671141	-7.97444966442953
H 0.5603265306122449	5.014836734693877	-6.400102040816327
