47

C -2.074	4.027	-7.987
C -0.904	3.886	-7.109
O -0.612	2.799	-6.589
C -3.285	4.451	-7.109
C -4.514	4.965	-7.835
O -4.385	5.594	-8.896
O -5.652	4.809	-7.304
H -1.792	4.84	-8.646
H -3.598	3.578	-6.559
H -2.953	5.201	-6.408
N -0.23	4.951	-6.967
C 0.909	5.043	-6.15
C 0.467	5.396	-4.778
O -0.446	6.205	-4.608
C 1.754	6.136	-6.693
C 2.227	5.872	-8.109
C 3.444	4.948	-8.177
C 4.53	5.336	-7.173
N 5.736	4.496	-7.303
H -0.516	5.757	-7.446
H 1.47	4.121	-6.167
H 1.15	7.03	-6.676
H 2.604	6.301	-6.05
H 1.398	5.31	-8.521
H 2.313	6.765	-8.696
H 3.137	3.934	-7.969
H 3.859	4.996	-9.172
H 4.796	6.372	-7.314
H 4.128	5.199	-6.18
H 5.501	3.49	-7.442
H 6.303	4.827	-8.117
H 6.356	4.593	-6.476
N 1.094	4.827	-3.832
C 0.762	5.049	-2.459
C 1.992	4.818	-1.61
O 3.106	4.672	-2.132
C -0.377	4.091	-2.05
S -0.002	2.35	-2.284
H 1.836	4.219	-4.052
H 0.421	6.066	-2.342
H -0.622	4.234	-1.009
H -1.245	4.313	-2.654
H 1.153	2.367	-2.929
N 1.806	4.816	-0.349
H 0.919	5.031	0.005
H -2.20065306122449	3.111312925170068	-8.512537414965987
H 2.5179183673469385	4.589102040816327	0.2831224489795918
