49

C 3.806	-0.465	8.517
C 3.835	2.472	8.323
H 2.088	0.278	4.865
H 4.602	1.047	6.088
H 2.133	-0.318	7.206
H 2.221	2.185	6.986
H 1.93	1.601	8.624
H 4.736	0.06	8.695
H 3.217	-0.456	9.421
H 4.02	-1.483	8.227
H 4.593	2.534	7.556
H 3.505	3.468	8.581
H 4.259	1.996	9.195
N 5.788	-1.137	5.783
C 6.498	-2.375	5.596
C 6.313	-3.247	6.806
O 6.618	-2.836	7.898
C 7.985	-2.11	5.382
C 8.743	-3.293	4.868
C 8.24	-4.32	4.133
C 10.139	-3.546	4.995
N 9.215	-5.209	3.826
C 10.401	-4.753	4.324
C 11.195	-2.879	5.611
C 11.668	-5.3	4.252
C 12.455	-3.43	5.537
C 12.679	-4.628	4.861
H 6.288	-0.293	5.872
H 6.111	-2.892	4.737
H 8.111	-1.301	4.681
H 8.422	-1.828	6.33
H 7.2	-4.419	3.871
H 9.07	-6.034	3.31
H 11.039	-1.95	6.137
H 11.861	-6.227	3.734
H 13.29	-2.935	6.007
H 13.679	-5.03	4.825
N 5.841	-4.44	6.606
H 5.599	-4.714	5.69
C 3.498	1.252	3.875
O 4.65	1.714	3.832
N 3.025	0.586	4.898
C 3.854	0.266	6.044
C 4.473	-1.094	5.829
O 3.754	-2.088	5.701
C 3.036	0.246	7.387
C 2.653	1.659	7.825
H 2.830026845637584	1.4251006711409395	3.0820872483221473
H 5.6918163265306125	-5.094326530612245	7.351918367346939
