66

C 9.239	-5.989	8.429
C 9.82	-4.906	9.321
O 10.282	-5.189	10.43
C 10.235	-6.373	7.373
C 9.731	-7.419	6.405
C 9.382	-8.727	7.056
O 10.298	-9.446	7.502
O 8.18	-9.065	7.141
H 9.023	-6.866	9.02
H 10.498	-5.489	6.811
H 11.118	-6.754	7.859
H 8.837	-7.006	5.963
H 10.479	-7.572	5.642
N 9.777	-3.663	8.875
C 10.415	-2.606	9.672
C 9.38	-1.677	10.26
O 9.641	-0.946	11.204
C 11.394	-1.818	8.818
C 12.371	-1.012	9.636
O 13.342	-1.6	10.164
O 12.224	0.214	9.737
H 9.33	-3.467	8.023
H 10.955	-3.077	10.479
H 11.941	-2.492	8.179
H 10.832	-1.136	8.197
N 8.193	-1.728	9.703
C 7.091	-0.914	10.188
C 7.108	0.497	9.639
O 6.292	1.335	10.032
H 8.014	-2.341	8.953
H 6.163	-1.387	9.901
H 7.136	-0.869	11.264
N 8.025	0.771	8.749
C 8.17	2.101	8.218
C 7.375	2.317	6.936
O 6.983	1.35	6.271
C 9.635	2.44	8.038
S 10.552	2.576	9.583
H 8.609	0.059	8.412
H 7.758	2.762	8.963
H 10.091	1.644	7.468
H 9.721	3.368	7.499
H 11.306	1.483	9.692
N 7.128	3.583	6.622
C 6.442	3.991	5.402
C 7.391	3.892	4.236
O 8.506	4.416	4.291
C 5.972	5.475	5.456
C 5.009	5.727	6.595
C 5.315	5.86	4.14
C 3.646	5.122	6.388
H 7.426	4.282	7.242
H 5.58	3.362	5.231
H 6.841	6.103	5.572
H 5.423	5.306	7.499
H 4.891	6.793	6.704
H 4.513	5.151	3.986
H 4.909	6.859	4.198
H 6.034	5.78	3.338
H 3.739	4.051	6.285
H 3.009	5.354	7.229
H 3.214	5.526	5.485
N 6.968	3.241	3.213
H 6.093	2.795	3.274
H 8.345877551020408	-5.6912925170068025	7.985714285714286
H 7.49395918367347	3.183408163265306	2.369938775510204
