47

H 8.451	0.564	4.263
H 10.991	2.816	1.73
H 10.263	0.249	5.854
H 12.847	2.524	3.322
H 12.838	0.269	5.792
N 7.305	3.91	-0.278
C 6.523	4.105	-1.491
C 6.218	2.773	-2.16
O 7.117	1.958	-2.414
C 7.435	4.96	-2.381
C 8.812	4.682	-1.89
C 8.683	4.431	-0.42
H 5.6	4.627	-1.291
H 7.313	4.663	-3.413
H 7.181	6.003	-2.267
H 9.199	3.802	-2.381
H 9.452	5.533	-2.073
H 9.408	3.697	-0.097
H 8.806	5.346	0.139
N 4.981	2.546	-2.435
C 4.561	1.331	-3.034
C 3.439	1.598	-3.985
O 2.669	2.531	-3.802
C 4.127	0.347	-1.974
H 4.299	3.229	-2.245
H 5.394	0.907	-3.572
H 3.26	0.724	-1.453
H 3.889	-0.585	-2.465
H 4.938	0.2	-1.276
N 3.334	0.814	-4.979
H 3.973	0.074	-5.071
C 7.726	3.158	1.998
C 6.805	3.321	0.817
O 5.621	2.951	0.899
C 8.485	1.85	1.897
C 9.606	1.7	2.89
C 10.849	2.248	2.64
C 9.424	0.985	4.058
C 11.883	2.088	3.532
C 10.447	0.812	4.95
C 11.677	1.364	4.685
O 12.706	1.202	5.58
H 8.432	3.977	2.006
H 7.796	1.035	2.065
H 8.902	1.756	0.905
H 7.174258503401361	3.2184149659863945	2.882387755102041
H 2.609591836734694	0.9416734693877551	-5.634020408163265
