49

H 8.451	0.564	4.263
H 10.991	2.816	1.73
H 10.263	0.249	5.854
H 12.847	2.524	3.322
H 12.838	0.269	5.792
C 8.17	2.101	8.218
C 7.375	2.317	6.936
O 6.983	1.35	6.271
C 9.635	2.44	8.038
S 10.552	2.576	9.583
H 7.758	2.762	8.963
H 10.091	1.644	7.468
H 9.721	3.368	7.499
H 11.306	1.483	9.692
N 7.128	3.583	6.622
C 6.442	3.991	5.402
C 7.391	3.892	4.236
O 8.506	4.416	4.291
C 5.972	5.475	5.456
C 5.009	5.727	6.595
C 5.315	5.86	4.14
C 3.646	5.122	6.388
H 7.426	4.282	7.242
H 5.58	3.362	5.231
H 6.841	6.103	5.572
H 5.423	5.306	7.499
H 4.891	6.793	6.704
H 4.513	5.151	3.986
H 4.909	6.859	4.198
H 6.034	5.78	3.338
H 3.739	4.051	6.285
H 3.009	5.354	7.229
H 3.214	5.526	5.485
N 6.968	3.241	3.213
C 7.726	3.158	1.998
C 8.485	1.85	1.897
C 9.606	1.7	2.89
C 10.849	2.248	2.64
C 9.424	0.985	4.058
C 11.883	2.088	3.532
C 10.447	0.812	4.95
C 11.677	1.364	4.685
O 12.706	1.202	5.58
H 6.093	2.795	3.274
H 8.432	3.977	2.006
H 7.796	1.035	2.065
H 8.902	1.756	0.905
H 8.064455782312926	1.1329047619047619	8.604510204081633
H 7.064610738255033	3.275053691275168	1.1498993288590604
