59

N 7.305	3.91	-0.278
C 6.523	4.105	-1.491
C 6.218	2.773	-2.16
O 7.117	1.958	-2.414
C 7.435	4.96	-2.381
C 8.812	4.682	-1.89
C 8.683	4.431	-0.42
H 5.6	4.627	-1.291
H 7.313	4.663	-3.413
H 7.181	6.003	-2.267
H 9.199	3.802	-2.381
H 9.452	5.533	-2.073
H 9.408	3.697	-0.097
H 8.806	5.346	0.139
N 4.981	2.546	-2.435
C 4.561	1.331	-3.034
C 3.439	1.598	-3.985
O 2.669	2.531	-3.802
C 4.127	0.347	-1.974
H 4.299	3.229	-2.245
H 5.394	0.907	-3.572
H 3.26	0.724	-1.453
H 3.889	-0.585	-2.465
H 4.938	0.2	-1.276
N 3.334	0.814	-4.979
C 2.29	0.998	-5.923
C 1.337	-0.174	-5.798
O 1.762	-1.284	-5.487
C 2.879	1.063	-7.339
O 4.038	1.932	-7.322
C 1.857	1.63	-8.308
H 3.973	0.074	-5.071
H 1.76	1.914	-5.711
H 3.164	0.07	-7.651
H 4.782	1.418	-7.665
H 1.557	2.608	-7.96
H 2.281	1.704	-9.297
H 0.991	0.984	-8.329
N 0.083	0.064	-6.033
C -0.924	-0.96	-5.91
C -2.312	-0.331	-5.788
C -2.319	0.661	-4.631
C -3.358	-1.413	-5.57
C -3.584	1.44	-4.51
H -0.191	0.979	-6.277
H -0.723	-1.529	-5.015
H -2.54	0.198	-6.701
H -2.169	0.132	-3.701
H -1.508	1.361	-4.77
H -3.128	-1.956	-4.665
H -4.332	-0.955	-5.481
H -3.353	-2.092	-6.41
H -4.399	0.768	-4.289
H -3.489	2.161	-3.71
H -3.778	1.955	-5.439
C 6.805	3.321	0.817
O 5.621	2.951	0.899
H 7.447845637583892	3.2072281879194633	1.6413221476510067
H -0.9003020134228188	-1.619234899328859	-6.773181208053692
