27

C 4.4995289447	-2.4386062347	0.4685294419
C 5.6956039782	-1.5122901957	0.3532991551
C 5.3816658525	-0.3123771823	-0.5953916203
C 3.8379839261	-0.0333254776	-0.657407228
C 3.2400677327	-1.7735123203	1.0509500111
C 3.4690351646	1.3136683987	-1.2763352182
C 6.2209766531	0.9178227996	-0.2055530411
C 5.8312656952	-0.7400091601	-2.0088251722
O 6.0644684485	-1.1513474718	1.6662371588
H 3.4471567067	-0.785394178	-1.3509011646
H 4.7750428919	-3.2959455124	1.0853305763
H 4.280917728	-2.8324681768	-0.5261333514
H 6.5274551689	-2.0732718293	-0.0858812784
H 3.2581630026	-1.8603469538	2.1380971405
H 2.3915801899	-2.3665556524	0.7094096164
H 4.0851058456	1.5302456293	-2.1502221704
H 3.6448372401	2.1252740153	-0.5683941935
H 5.9258563002	1.3557745829	0.7448880844
H 7.2802377101	0.6473862976	-0.1376381534
H 6.1499211968	1.6952998316	-0.9668056258
H 5.3845714253	-1.6926210118	-2.3025227099
H 5.5513434318	-0.001414347	-2.761211227
H 6.9172614265	-0.8564009046	-2.0523342914
H 6.9117695488	-0.7349908818	1.6559184924
H 3.2716266423842106	-0.20318251053355263	0.26541866977039474
H 3.0946119798644736	-0.7183694047539473	0.7711823260828947
H 2.4388321145671052	1.3071887448625001	-1.5702725393506578
