8

C 1.0366650336	-1.5512890479	-0.1636869697
C 2.0061646342	-0.5029132721	0.4365765357
Cl 2.7570182442	-0.9273193005	1.9569746301
H 0.19045052916776306	-1.593196775744737	0.5206897456210526
H 0.608465877890845	-1.0180973102239435	-0.972174574637324
H 1.464882519406579	-2.472790769775	-0.4735111342236843
H 1.509796951325658	0.4157172597138159	0.2214542514875
H 2.457438798261184	0.20673678204802626	-0.2135306766236842
