9

Cl 1.1022721112	2.1422954979	1.2378917812
C 0.0203769501	0.325609376	-0.5971067824
C 1.3010441875	0.802057203	0.1309822628
O 0.4684007335	-0.8436887979	-1.236633137
H 0.8565812765260563	-1.3270495320549296	-0.503705121309155
H 1.7974118703743422	-0.11657332881381588	0.3461045470125
H -0.6174134453407895	-0.09802758390460531	0.19070578734802635
H -0.4040477111414474	1.0040112004802633	-1.2960344085032895
H 2.248686034435526	0.5930767253342105	-0.30400266531118425
