6

N -2.153554702	-0.7739982365	0.0307083544
N -2.1693699899	-2.1318218037	0.0312617041
N -1.1329398329	-2.632608343	0.4125021629
H -0.4616093073571429	-1.923613405355102	0.6872843105979591
H -1.2737792706244897	-0.42858212254081635	0.3716246032612245
H -3.0277613226625	-0.29403077026666663	0.047647220416666664
