6

N 1.9118891226	0.5188009328	1.1133354244
C 2.0585372372	1.4726015295	0.1635737821
O 3.1014184125	1.8067656056	-0.3010753352
H 2.380586835812245	-0.29760219728979587	1.392680333865306
H 1.3335693870857144	-0.20657275240408157	1.4417171944040816
H 1.187972287905036	1.903956169183453	-0.04530359422230215
