59

O -0.379	-0.118	-12.484
H -1.096	4.422	-8.859
H -1.506	3.092	-11.351
H 0.089	2.352	-9.564
H -1.3	1.867	-8.593
H -0.524	-0.091	-9.76
H -2.028	0.404	-10.528
N -3.878	2.893	-9.076
C -5.28	2.544	-8.869
C -6.182	3.72	-9.231
O -7.404	3.589	-9.267
C -5.495	2.15	-7.406
C -4.929	0.771	-7.161
C -3.559	0.617	-6.921
C -5.77	-0.347	-7.165
C -3.027	-0.652	-6.687
C -5.238	-1.621	-6.931
C -3.866	-1.773	-6.691
H -3.375	3.314	-8.346
H -5.537	1.703	-9.498
H -4.988	2.858	-6.768
H -6.551	2.151	-7.18
H -2.912	1.477	-6.92
H -6.827	-0.228	-7.349
H -1.968	-0.766	-6.502
H -5.885	-2.486	-6.934
H -3.458	-2.753	-6.51
N -5.569	4.865	-9.512
C -6.33	6.051	-9.885
C -7.354	6.407	-8.813
O -8.528	6.623	-9.111
H -4.59	4.91	-9.477
H -5.649	6.881	-10.015
H -6.843	5.866	-10.816
N -6.897	6.463	-7.563
H -5.948	6.276	-7.394
C -1.75	6.783	-9.587
C -2.04	5.462	-10.297
O -2.655	5.446	-11.363
C -0.335	7.254	-9.943
C -0.124	8.682	-9.43
C -1.012	9.655	-10.201
O -1.419	9.314	-11.298
O -1.265	10.731	-9.683
H -2.458	7.521	-9.931
H 0.387	6.595	-9.485
H -0.209	7.236	-11.013
H -0.375	8.724	-8.382
H 0.911	8.959	-9.562
N -1.585	4.358	-9.709
C -1.799	3.049	-10.312
C -3.265	2.646	-10.23
O -3.828	2.115	-11.187
C -0.933	2.007	-9.598
C -0.997	0.675	-10.352
C -0.272	0.799	-11.688
O 0.385	1.807	-11.892
H -1.844625850340136	6.680367346938776	-8.53665306122449
H -7.504836734693877	6.6926734693877545	-6.778224489795918
