59

C -7.773	6.794	-6.432
C -7.215	7.977	-5.648
O -6.045	8.332	-5.792
C -7.911	5.583	-5.506
C -6.518	5.133	-5.034
C -8.593	4.437	-6.258
C -6.641	4.068	-3.934
H -8.755	7.057	-6.802
H -8.511	5.853	-4.654
H -5.977	4.723	-5.869
H -5.976	5.978	-4.644
H -9.505	4.797	-6.716
H -8.83	3.64	-5.567
H -7.93	4.062	-7.024
H -6.609	4.546	-2.966
H -5.817	3.374	-4.016
H -7.573	3.531	-4.041
N -8.062	8.581	-4.817
C -7.655	9.728	-4.002
C -7.993	9.485	-2.534
O -9.156	9.294	-2.18
C -8.376	10.983	-4.495
C -8.404	10.997	-6.018
O -7.862	11.909	-6.644
N -9.004	10.029	-6.657
H -8.982	8.248	-4.748
H -6.587	9.881	-4.094
H -9.389	10.989	-4.117
H -7.854	11.858	-4.139
H -9.432	9.301	-6.156
H -9.029	10.029	-7.637
N -6.969	9.498	-1.684
C -7.164	9.284	-0.25
C -6.237	10.196	0.549
O -5.068	10.37	0.203
C -6.884	7.82	0.103
C -5.52	7.411	-0.457
C -6.888	7.643	1.625
H -6.064	9.66	-2.026
H -8.187	9.517	0.013
H -7.65	7.196	-0.335
H -4.752	8.038	-0.029
H -5.522	7.526	-1.53
H -5.323	6.379	-0.205
H -7.738	8.162	2.044
H -5.978	8.052	2.038
H -6.953	6.592	1.865
N -6.769	10.771	1.622
C -5.985	11.657	2.469
C -6.901	12.396	3.445
C -6.108	13.448	4.213
O -4.9	13.487	4.052
O -6.721	14.202	4.95
H -7.705	10.591	1.85
H -5.479	12.382	1.849
H -7.695	12.877	2.896
H -7.324	11.688	4.143
H -7.135367346938776	6.553068027210884	-7.255244897959184
H -5.2381543624161075	11.083939597315435	3.0291342281879197
