65

C -9.861	10.233	4.965
C -10.966	9.169	5.044
N -12.037	9.497	4.059
H -5.865	10.424	5.898
H -7.316	8.804	7.796
H -7.435	9.072	4.801
H -8.456	7.963	5.717
H -9.373	9.812	7.015
H -8.279	10.944	6.223
H -10.301	11.213	5.054
H -9.354	10.152	4.018
H -10.554	8.2	4.811
H -11.384	9.154	6.038
H -12.875	9.854	4.562
H -12.292	8.641	3.526
H -11.694	10.226	3.402
N -4.842	7.564	6.181
C -4.019	6.373	5.974
C -3.173	6.08	7.211
O -2.244	5.279	7.163
C -3.101	6.569	4.766
H -4.479	8.444	5.949
H -4.666	5.53	5.783
H -2.443	5.717	4.671
H -2.514	7.466	4.9
H -3.7	6.661	3.871
N -3.498	6.742	8.314
H -4.247	7.372	8.29
C -4.945	10.859	3.249
O -5.208	9.737	3.681
N -3.768	11.446	3.428
C -2.697	10.779	4.161
C -3.085	10.597	5.626
O -2.711	9.607	6.257
C -1.407	11.603	4.068
C -0.204	10.747	4.482
C -0.243	10.479	5.983
O -0.689	11.353	6.708
O 0.171	9.404	6.384
H -3.616	12.342	3.064
H -2.526	9.809	3.72
H -1.273	11.944	3.052
H -1.48	12.458	4.726
H -0.225	9.808	3.949
H 0.707	11.273	4.238
N -3.832	11.557	6.159
C -4.263	11.494	7.551
C -5.175	10.292	7.772
O -5.2	9.71	8.856
C -5.003	12.779	7.928
C -4.016	13.936	8.043
O -2.825	13.673	8.098
O -4.465	15.071	8.074
H -4.097	12.322	5.607
H -3.393	11.393	8.182
H -5.736	13.006	7.169
H -5.501	12.64	8.876
N -5.924	9.925	6.739
C -6.832	8.789	6.835
C -6.075	7.476	6.674
O -6.599	6.407	6.985
C -7.903	8.887	5.756
C -8.851	10.037	6.097
H -5.670906040268457	11.415993288590604	2.7045704697986577
H -2.9873061224489796	6.6094693877551025	9.17926530612245
