53

C -5.102	-12.099	-2.345
C -4.568	-11.378	-3.578
O -3.377	-11.077	-3.665
C -5.002	-13.618	-2.562
C -6.154	-14.108	-3.478
C -7.249	-14.796	-2.647
C -8.381	-15.247	-3.569
N -9.429	-15.926	-2.758
H -4.5	-11.83	-1.491
H -4.049	-13.848	-3.024
H -5.057	-14.116	-1.603
H -6.587	-13.27	-4.009
H -5.764	-14.816	-4.197
H -6.828	-15.656	-2.146
H -7.636	-14.107	-1.914
H -8.809	-14.388	-4.065
H -7.996	-15.934	-4.309
H -10.146	-16.337	-3.389
H -9.878	-15.233	-2.125
H -8.992	-16.68	-2.193
N -5.451	-11.117	-4.537
C -5.041	-10.445	-5.763
C -4.678	-8.992	-5.486
O -3.641	-8.51	-5.935
C -6.17	-10.501	-6.8
C -5.612	-10.18	-8.188
C -4.756	-11.339	-8.685
O -4.909	-12.428	-8.159
O -3.96	-11.12	-9.582
H -6.386	-11.385	-4.419
H -4.175	-10.952	-6.163
H -6.606	-11.488	-6.806
H -6.928	-9.776	-6.549
H -6.431	-10.018	-8.875
H -5.009	-9.286	-8.134
N -5.537	-8.304	-4.738
C -5.301	-6.9	-4.407
C -4.008	-6.742	-3.616
O -3.23	-5.821	-3.858
C -6.473	-6.342	-3.596
O -7.66	-6.419	-4.372
C -6.2	-4.879	-3.239
H -6.346	-8.749	-4.404
H -5.217	-6.339	-5.326
H -6.591	-6.913	-2.69
H -8.287	-5.783	-4.021
H -5.83	-4.358	-4.11
H -5.464	-4.832	-2.452
H -7.116	-4.413	-2.904
N -3.788	-7.645	-2.669
H -4.446	-8.355	-2.522
H -6.107945578231293	-11.82604081632653	-2.1586598639455783
H -2.9560408163265306	-7.611	-2.0951632653061223
