56

H -3.826	-6.075	3.171
H -2.898	-7.085	5.756
H -4.605	-6.665	5.827
H -3.447	-8.355	3.599
H -4.079	-9.049	5.093
H -5.003	-7.185	2.204
H -6.669	-7.47	2.355
N -3.812	-3.786	5.535
C -4.501	-2.587	5.991
C -4.688	-1.614	4.833
O -5.764	-1.042	4.657
C -3.699	-1.913	7.103
C -3.438	-2.916	8.229
C -4.757	-3.403	8.813
O -5.601	-2.598	9.206
N -4.982	-4.683	8.895
H -2.969	-4.053	5.961
H -5.471	-2.863	6.375
H -2.759	-1.559	6.709
H -4.264	-1.08	7.491
H -2.891	-3.76	7.834
H -2.856	-2.443	9.004
H -4.305	-5.318	8.582
H -5.826	-5.01	9.268
N -3.637	-1.437	4.041
C -3.701	-0.539	2.897
C -4.657	-1.089	1.844
O -5.407	-0.339	1.219
C -2.306	-0.364	2.292
H -2.809	-1.925	4.225
H -4.062	0.423	3.228
H -2.052	-1.241	1.711
H -1.583	-0.234	3.087
H -2.299	0.507	1.653
N -4.629	-2.406	1.653
C -5.499	-3.046	0.672
C -6.963	-2.914	1.083
O -7.839	-2.728	0.24
C -5.133	-4.525	0.529
H -4.012	-2.957	2.182
H -5.361	-2.561	-0.283
H -4.163	-4.612	0.063
H -5.872	-5.021	-0.082
H -5.106	-4.985	1.506
N -7.218	-3.014	2.385
H -6.478	-3.162	3.009
C -3.521	-5.772	4.164
C -4.319	-4.529	4.559
O -5.378	-4.255	3.994
C -3.787	-6.922	5.167
C -4.141	-8.212	4.417
C -5.558	-8.107	3.871
O -6.508	-8.54	4.522
N -5.761	-7.54	2.714
H -2.484482993197279	-5.550721088435374	4.147986394557823
H -8.162367346938776	-2.9383673469387754	2.743734693877551
