69

C -15.788	-1.049	-4.785
C -16.779	0.108	-4.804
O -17.93	-0.053	-5.204
C -15.957	-1.85	-3.5
C -15.096	-3.115	-3.563
C -15.602	-4.045	-4.662
O -16.786	-4.337	-4.664
O -14.797	-4.452	-5.485
H -15.985	-1.69	-5.63
H -15.648	-1.242	-2.663
H -16.993	-2.125	-3.384
H -14.073	-2.84	-3.772
H -15.141	-3.626	-2.614
N -16.32	1.274	-4.369
C -17.169	2.457	-4.335
C -17.667	2.798	-5.734
O -18.746	3.366	-5.899
C -16.39	3.648	-3.765
C -17.369	4.746	-3.324
C -16.608	5.882	-2.616
C -16.463	5.571	-1.122
N -17.814	5.417	-0.517
H -15.39	1.341	-4.063
H -18.019	2.255	-3.701
H -15.808	3.32	-2.916
H -15.728	4.043	-4.523
H -17.873	5.141	-4.197
H -18.103	4.327	-2.65
H -15.628	5.997	-3.057
H -17.16	6.805	-2.731
H -15.905	4.655	-0.997
H -15.94	6.381	-0.636
H -17.786	5.724	0.477
H -18.103	4.419	-0.563
H -18.496	6.002	-1.04
N -16.865	2.463	-6.736
C -17.23	2.758	-8.113
C -18.549	2.084	-8.469
O -19.408	2.684	-9.114
C -16.141	2.247	-9.054
C -14.815	2.93	-8.721
C -13.804	2.65	-9.838
C -13.447	1.161	-9.866
N -12.2	0.966	-10.658
H -16.011	2.023	-6.546
H -17.33	3.824	-8.235
H -16.037	1.179	-8.934
H -16.415	2.471	-10.074
H -14.97	3.995	-8.632
H -14.434	2.541	-7.785
H -14.236	2.931	-10.787
H -12.91	3.228	-9.664
H -13.295	0.805	-8.859
H -14.253	0.607	-10.324
H -12.088	-0.042	-10.89
H -11.381	1.285	-10.1
H -12.257	1.517	-11.538
N -18.704	0.835	-8.045
C -19.925	0.093	-8.328
C -19.997	-1.173	-7.477
O -19.041	-1.93	-7.493
C -19.976	-0.272	-9.816
O -21.006	-1.362	-6.819
H -17.986	0.407	-7.535
H -20.774	0.719	-8.095
H -19.373	-1.151	-9.995
H -19.588	0.552	-10.401
H -20.998	-0.469	-10.104
H -14.794428571428572	-0.6886938775510204	-4.852693877551021
