56

C -0.079	-3.397	-3.674
C 1.303	-3.831	-3.195
O 2.243	-3.045	-3.192
C -1.007	-3.193	-2.472
C -0.424	-2.134	-1.535
C -2.381	-2.729	-2.952
H 0.012	-2.463	-4.209
H -1.108	-4.127	-1.937
H 0.491	-2.501	-1.1
H -1.136	-1.921	-0.75
H -0.224	-1.23	-2.09
H -2.863	-3.528	-3.494
H -2.266	-1.871	-3.598
H -2.985	-2.458	-2.097
N 1.418	-5.093	-2.793
C 2.688	-5.619	-2.311
C 3.751	-5.551	-3.402
O 4.917	-5.263	-3.128
C 2.518	-7.067	-1.86
O 2.267	-7.883	-2.994
H 0.635	-5.679	-2.82
H 3.013	-5.028	-1.467
H 3.415	-7.402	-1.372
H 1.688	-7.132	-1.169
H 1.482	-7.547	-3.435
N 3.344	-5.818	-4.639
C 4.274	-5.784	-5.759
C 4.858	-4.386	-5.925
O 6.054	-4.223	-6.15
C 3.556	-6.197	-7.046
C 3.295	-7.701	-7.045
O 3.909	-8.393	-6.249
O 2.483	-8.141	-7.843
H 2.405	-6.042	-4.8
H 5.076	-6.477	-5.569
H 2.616	-5.672	-7.113
H 4.169	-5.94	-7.894
N 4.01	-3.379	-5.817
C 4.459	-2.004	-5.951
C 3.251	-1.083	-6.112
C 2.414	-1.542	-7.32
C 3.74	0.352	-6.333
C 0.993	-0.997	-7.196
H 3.062	-3.56	-5.641
H 5.079	-1.923	-6.832
H 2.65	-1.121	-5.213
H 2.863	-1.174	-8.234
H 2.376	-2.62	-7.353
H 4.454	0.369	-7.143
H 4.211	0.714	-5.432
H 2.901	0.987	-6.58
H 0.397	-1.351	-8.026
H 1.017	0.082	-7.201
H 0.561	-1.348	-6.269
H -0.4822517006802722	-4.128530612244898	-4.323278911564626
H 5.0478590604026845	-1.700234899328859	-5.074892617449664
