50

C 14.004	-4.876	-6.239
C 12.785	-5.786	-6.209
O 12.191	-6.083	-7.247
C 15.247	-5.687	-6.599
C 16.486	-4.788	-6.525
C 17.733	-5.621	-6.834
C 16.365	-3.637	-7.54
H 13.85	-4.117	-6.989
H 15.354	-6.506	-5.904
H 15.147	-6.076	-7.602
H 16.569	-4.38	-5.528
H 17.778	-6.462	-6.158
H 18.615	-5.01	-6.709
H 17.684	-5.979	-7.853
H 17.348	-3.255	-7.778
H 15.771	-2.842	-7.115
H 15.89	-3.995	-8.444
N 12.412	-6.225	-5.012
C 11.258	-7.102	-4.848
C 11.676	-8.57	-4.904
O 10.868	-9.465	-4.66
H 12.924	-5.952	-4.22
H 10.793	-6.894	-3.899
H 10.546	-6.91	-5.64
N 12.944	-8.81	-5.234
C 13.47	-10.175	-5.331
C 14.253	-10.55	-4.074
O 14.066	-11.629	-3.515
C 14.386	-10.289	-6.552
H 13.54	-8.054	-5.424
H 12.648	-10.87	-5.451
H 14.559	-11.33	-6.776
H 15.327	-9.803	-6.34
H 13.918	-9.812	-7.399
N 15.135	-9.653	-3.642
C 15.953	-9.899	-2.456
C 15.191	-9.537	-1.188
O 15.764	-9.495	-0.099
C 17.238	-9.075	-2.529
C 18.098	-9.556	-3.692
O 17.897	-10.678	-4.127
O 18.948	-8.797	-4.13
H 15.244	-8.813	-4.135
H 16.216	-10.947	-2.42
H 16.989	-8.034	-2.674
H 17.79	-9.187	-1.608
N 13.895	-9.272	-1.335
H 13.498	-9.321	-2.231
H 14.141571428571428	-4.4094217687074835	-5.295653061224489
H 13.309367346938776	-9.020122448979592	-0.5446734693877551
