28

C -0.1727028408	2.1046700392	-0.0763624185
C 7.5131e-05	0.7355369072	0.5630236731
C -1.1702472019	-0.1903008491	0.23668169
C -1.1995099518	-0.9606750503	-0.9229292483
C -2.2833317431	-1.7800469698	-1.1993649538
C -3.3563967408	-1.8437807687	-0.3208840196
C -3.3380548888	-1.0794979768	0.8354198921
C -2.2525213818	-0.2584350847	1.1084548921
H -0.3702343433	-0.9286980421	-1.6142333476
H -2.288223944	-2.3724505894	-2.1047958295
H -4.1997013306	-2.4864315057	-0.5366030885
H -4.1681407947	-1.1199193184	1.5283006774
H -2.2521723763	0.3387918174	2.0108253822
C 1.3733836139	0.1224454753	0.3062878572
C 1.9195842071	-0.7028792017	1.2899259906
C 3.1583232327	-1.2975407056	1.1194734915
C 3.8834549073	-1.0757025769	-0.0447247226
C 3.3532947076	-0.2589944182	-1.0290389743
C 2.1068713431	0.3344785953	-0.8582222514
H 1.3639680352	-0.8846664785	2.2012155829
H 3.5603471858	-1.9329326267	1.897532873
H 4.8528808622	-1.5363389983	-0.1801954454
H 3.9071184687	-0.0784833138	-1.9409297259
H 1.7142042539	0.9592728408	-1.6465147844
H -0.048203364	0.9473784888	1.6319013211
H 0.6749142382	2.7598062915	0.1085743928
F -0.3489488353	2.0231495852	-1.4086665487
F -1.2711452104	2.6987747607	0.41949559
