44

C        -1.2643743072   -0.5812911669    0.6781220256
C        -0.8936686972   -0.2158593368   -0.8147345544
C        -2.1592721747    0.5293389943   -1.2989671978
C        -2.7082790742    1.2740559128   -0.0868328850
C        -2.5058046811    0.2834466023    1.0662260353
C         0.3274512895    0.7258365246   -0.8616808124
C         1.6875328504    0.0875880489   -0.6084263602
C         2.7348108959    1.0571108235   -0.1254188717
C         3.6307085923    1.6281899797   -1.0236313420
C         4.5748449039    2.5459535564   -0.5834290893
C         4.6315137697    2.8971660317    0.7573940740
C         3.7366536373    2.3327833734    1.6564024665
C         2.7868476563    1.4219038204    1.2173423580
O        -0.7380778649   -1.3105816292   -1.6300649403
F        -1.9352647949    1.3493057813   -2.3177019783
F        -3.0832149339   -0.3496056329   -1.6713148944
F        -1.9825838074    2.3678418008    0.1405177451
F        -3.9685892702    1.6329668759   -0.2296215384
F        -2.3166804390    0.9097287261    2.2128386599
F        -3.5991760169   -0.4613669294    1.1736417943
C        -1.4953856264   -2.0776987735    0.9378198825
F        -2.4301530514   -2.5854068950    0.1802379529
F        -0.2525495530   -0.2384898013    1.5196847286
N         1.8656964025   -1.1277255624   -0.8652283643
C         3.1440680541   -1.8068783195   -0.6749392336
C         2.9491164538   -2.9375590595    0.3322284139
C         3.6212254310   -2.3305431230   -2.0274913411
F        -0.3813703890   -2.7466156765    0.7412062339
F        -1.8394010722   -2.2515825556    2.1989713648
H         3.8954911839   -1.1201772045   -0.2817478879
H         3.7739791905   -1.5122273141   -2.7341113190
H         4.5679630551   -2.8631614264   -1.9155103459
H         2.8887557387   -3.0173602558   -2.4573144099
H         2.6040184028   -2.5484201946    1.2913383972
H         2.2096531631   -3.6557333707   -0.0261498835
H         3.8929224082   -3.4625640692    0.4948377096
H         3.5928789005    1.3563669682   -2.0705128804
H         5.2665061311    2.9849834274   -1.2898603694
H         5.3687190702    3.6103341661    1.1009202655
H         3.7754127703    2.6037330046    2.7029241066
H         2.0873286437    0.9901837704    1.9203134910
H         0.2003521461    1.5598245268   -0.1793153605
H         0.3611862570    1.1535038810   -1.8645144164
H         0.1667410500   -1.6129515033   -1.5318450083
