26

N 0.5358610726	-1.6630825385	2.5369379692
C 0.6411977072	-1.1062808085	1.5515658652
C 0.7900144905	-0.4097160892	0.2458590815
C 0.2959573385	1.0461214558	0.3566288118
C 0.6119488583	1.9441482465	-0.6639885414
C 0.1416901479	3.2458923875	-0.6333536854
C -0.6491507776	3.6792496715	0.4242837812
C -0.9616291549	2.7973440867	1.4436799275
C -0.4943968172	1.4875723397	1.4099313505
H 1.2407194777	1.6304570026	-1.4858625377
H 0.3993523083	3.926408034	-1.4339819494
H -1.0137396757	4.6973213771	0.4511013685
H -1.5751258207	3.1203126416	2.2739225728
H -0.7575780746	0.8153253586	2.2131806951
C 2.3021227489	-0.4435164394	-0.0866159555
C 2.8185659551	-1.0336681795	-1.2321241029
C 4.1895180941	-1.023427751	-1.4811667919
C 5.0592433069	-0.4292117968	-0.5870105334
C 4.5520076753	0.1606776535	0.5664152463
C 3.1918953838	0.1540754962	0.8102337782
H 2.1748360855	-1.5117428523	-1.9533547591
H 4.5677257601	-1.4886798227	-2.3816231303
H 6.1235578801	-0.4241871411	-0.7800979968
H 5.2202852514	0.6271965597	1.2776067788
H 2.8134673535	0.6187095909	1.7104482916
H 0.19102915523749997	-0.9623890533032895	-0.49309369874999986
