15

C -2.0897203397	-2.3059258804	0.22158647
H -2.0457056913	0.4959646662	-1.6885200665
F -4.5771007733	0.4842249865	-1.3994521107
H -5.3858488096	-1.4860524648	0.0426436045
H -3.8609981605	-3.1951602453	1.0302530628
H -1.4388782651	-3.0530430849	0.6529357739
H 0.1001600294	-0.7212172263	-1.7704910167
H 0.3330519714	-2.2083506527	-0.8687806472
C -0.0608805652	-1.1948216083	-0.8038682325
C -1.55213989	-1.2696553886	-0.5384744072
C -2.4134474686	-0.3238475488	-1.0888897106
C -3.7695987493	-0.4272885387	-0.8629648374
C -4.3167792246	-1.4424583258	-0.1067642201
C -3.4582600918	-2.3860582986	0.4363518574
H 0.5381047700625001	-0.6421486441967106	-0.06491545225000006
