14

C 1.4693039551	-1.1022692076	0.4508940167
C 2.8542852452	-1.1144085663	0.4524330493
C 3.5761928356	-0.0145116166	-0.0078314019
C 2.8634773713	1.0906121421	-0.4704363225
C 1.4786184483	1.089570772	-0.4706709249
C 0.7452240707	-0.0032639613	-0.0096290011
N 4.973289924	-0.0407053838	-0.0580730302
H 0.9415361298	-1.9649084216	0.8360898501
H 3.3817076962	-1.9861488013	0.8197054623
H 3.3984762224	1.9531226647	-0.8482801929
H 0.9580411671	1.9564254307	-0.856098839
H 5.3844166101	-0.6503516424	0.6219349382
H 5.390786091	0.8676241678	0.0033700326
H -0.3164650163246576	0.0013860657575342468	-0.0096290011
