12

C -3.6795255143	-1.0631887458	-1.2987598094
C -2.3942333476	-0.8483871619	-1.5792974559
C -1.2498460063	-0.5934781822	-0.655598584
C 0.0533628876	-1.4200691607	-0.7680285663
H -4.3113359805	-1.2375718102	-2.1639886381
H -2.1360250243	-0.8575705128	-2.6350952119
H -0.9833299926	0.4627962387	-0.6917283562
H -0.1988162848	-2.4418637174	-1.0675704374
H -4.236656663434246	-1.1352732682547946	-0.40434156787123277
H -1.3356593379723685	-0.8987695980111843	0.3768784964151315
H 0.11400698489868422	-1.4185035293085526	0.3336669944664473
H 0.8043627565221476	-1.0495888435597316	-1.4498242804067116
