13

H 0.3035411205	-2.4165427611	1.2045698664
H 3.1128581841	-0.5493701685	2.4595721657
H 0.6924058624	-0.3433660271	2.5853088388
C 0.1395115118	-1.4178450862	0.7969969032
C 2.5873652387	-0.6577800488	1.5159207351
C 1.0784283273	-0.5265905547	1.5865915047
N 1.9118891226	0.5188009328	1.1133354244
C 2.0585372372	1.4726015295	0.1635737821
O 3.1014184125	1.8067656056	-0.3010753352
H 0.07886741450131578	-1.4194107175914474	-0.3046986575664473
H -0.9243363885348684	-1.1428255893269736	0.8069232130203947
H 3.0829224723516777	-1.3549532106006712	0.8702047922785233
H 1.187972287905036	1.903956169183453	-0.04530359422230215
