16

H -5.7918791696	2.9463225682	-0.7200310335
C -0.0458618637	1.4228672124	1.1861104039
H -4.7895850676	3.1987333574	1.5317328676
C -0.9303350694	0.9118409132	0.3308605278
C -3.0015065841	2.1424167185	1.0239020185
C -2.2804173158	1.4585883108	0.0411760502
C -2.8659920507	1.3109406491	-1.2159709267
C -4.1172903469	1.8458087515	-1.4894663459
C -4.8147390737	2.5329553394	-0.5085008605
C -4.2503018839	2.676353334	0.7523911531
H -0.2002631673	2.3157721234	1.7763440921
H -2.5877692188	2.24271763	2.0176279553
H -2.3433401395	0.7793931555	-1.9978341274
H -4.5470191513	1.7215176522	-2.4747335577
H 0.8546434260073824	0.9021988426496644	1.1875512642919464
H -0.5356506295771812	0.04951243117583903	-0.16222565847114095
