12

C 1.2442851379	0.6769096442	1.1881747135
C 1.0682806502	-0.406788023	0.1660238018
C -0.3648737085	-0.3236104697	-0.3755802583
H 1.6611312304	1.4815144681	-0.8224941321
C 2.0094234269	0.7343260385	-0.1203541698
H 1.7964574763	0.5405896322	2.1090050655
H 1.5009963908	-1.3879834286	0.3008298173
H -0.3359456974	-0.1564191253	-1.4540426112
H 0.3178037340664429	1.2125972938469798	1.186692289827517
H -0.7709432763946309	0.5635928723825505	0.13172956795973162
H -0.9318427640543625	-1.2420278792865773	-0.19865245989932884
H 3.0711121171617455	0.5759757931657717	-0.15563366438724832
