27

C 3.6398666863	-1.9474548065	0.5968491408
C 3.6554794001	-0.9047906433	-0.3499512542
C 2.5463356206	-0.106570542	-0.524360123
C 1.4083457707	-0.3565595434	0.2466533599
C 1.3933792237	-1.3678224791	1.1783471228
C 2.5169017926	-2.1753867905	1.3600300124
C 0.1007585739	0.4396261079	0.2453975719
C -0.4622903453	0.6184008959	-1.1490615757
C -0.6547594034	1.8217701303	-1.681577728
C -0.8138051133	-0.6461190236	-1.9017289326
O 4.8286510551	-0.7959347523	-1.0246347675
C 5.0034580068	0.2481420017	-1.9452494687
O 4.7269843879	-2.7233215399	0.7569125794
H 5.4041070489	-2.4213336722	0.1664501525
H -1.067307335	1.943600261	-2.6749354516
H 0.0524459454	-0.9890832516	-2.4727273529
H -1.6008247885	-0.4136096294	-2.6191235097
H 2.5490453534	0.7021201722	-1.2396917996
H 2.5349891387	-2.9787198818	2.0835167308
H 4.2962191041	0.1683312701	-2.7731683155
H 6.0150100851	0.1506430467	-2.3298865029
H 4.8926590823	1.2217109857	-1.4642447248
H 0.47507761243557045	-1.4044114796261744	1.6907517960563758
H -0.5713260051440789	-0.20122835129671046	0.8604581360026317
H 0.2689852540221477	1.3805431098087249	0.7551113973208055
H -0.4298501558767123	2.7197986503383564	-1.1818430690575341
H -1.137007182451316	-1.4291005667894738	-1.2287972382164474
