22

C 0.0777355691	-1.4202432587	1.9124653566
C -0.8539783982	-0.4707465818	1.1191284667
N -1.8032991751	-1.1856988535	0.2795226906
C -1.2729332863	-1.75839187	-0.9457885817
C -3.1267298505	-1.1076593728	0.5776307685
O -3.886607762	-1.6965724739	-0.337873183
C -5.2929166464	-1.6951867779	-0.1012699539
C -5.947582988	-2.412398188	-1.2590388109
O -3.5719865205	-0.5815006214	1.5547327056
H -2.0246315481	-2.381821373	-1.4116571653
H -0.4342974831	-2.4014227685	-0.6826628625
H -1.442613795	0.1440290642	1.7860002084
H 0.1956062109	-1.0679697739	2.9403249582
H -0.3456014457	-2.423685588	1.9684022652
H -5.6374701935	-0.6661803535	-0.018019458
H -5.4937514515	-2.19220767	0.8460838157
H -5.7339343881	-1.9054445626	-2.2014764819
H -7.029631836	-2.4314165343	-1.1154822
H -5.5912884428	-3.4413372172	-1.3313404832
H 1.0225266499201344	-1.3825988062355705	1.3852797793073823
H -0.18189381915592107	0.17010787739671046	0.5040679025973684
H -0.9497312171486842	-0.9754103268105262	-1.6187202760835526
