70

N -13.517	-3.931	-15.073
C -13.272	-4.946	-16.119
C -11.789	-5.027	-16.462
O -11.23	-4.114	-17.075
C -14.078	-4.581	-17.36
C -14.702	-3.274	-17.01
C -14.724	-3.202	-15.499
H -13.602	-5.906	-15.751
H -13.418	-4.492	-18.211
H -14.824	-5.338	-17.547
H -14.111	-2.465	-17.414
H -15.709	-3.234	-17.4
H -14.683	-2.174	-15.173
H -15.612	-3.682	-15.115
N -11.157	-6.117	-16.053
C -9.745	-6.345	-16.331
C -9.554	-7.728	-16.943
O -10.521	-8.474	-17.116
C -8.92	-6.212	-15.047
C -8.919	-4.806	-14.469
C -8.35	-4.754	-13.069
O -9.011	-5.26	-12.139
O -7.241	-4.212	-12.889
H -11.656	-6.8	-15.553
H -9.421	-5.598	-17.041
H -9.324	-6.881	-14.303
H -7.9	-6.491	-15.256
H -8.322	-4.169	-15.106
H -9.934	-4.438	-14.446
N -8.314	-8.065	-17.269
C -8.035	-9.338	-17.903
C -8.239	-9.267	-19.4
O -8.597	-10.256	-20.041
H -7.579	-7.441	-17.083
H -7.011	-9.615	-17.698
H -8.694	-10.09	-17.495
N -8.014	-8.086	-19.956
C -8.204	-7.861	-21.381
C -6.968	-8.301	-22.155
O -7.066	-8.86	-23.248
C -8.494	-6.374	-21.678
C -8.783	-6.154	-23.155
C -9.657	-5.875	-20.832
H -7.706	-7.344	-19.391
H -9.052	-8.448	-21.704
H -7.617	-5.799	-21.418
H -8.966	-5.104	-23.331
H -9.655	-6.722	-23.438
H -7.936	-6.475	-23.742
H -10.546	-6.437	-21.079
H -9.826	-4.827	-21.032
H -9.426	-6.009	-19.786
N -5.806	-8.053	-21.571
C -4.546	-8.407	-22.194
C -4.268	-9.897	-22.02
O -4.556	-10.477	-20.97
C -3.411	-7.566	-21.6
C -2.03	-7.922	-22.127
C -1.896	-7.752	-23.627
O -2.375	-8.632	-24.375
O -1.29	-6.753	-24.065
H -5.798	-7.632	-20.687
H -4.628	-8.192	-23.25
H -3.598	-6.527	-21.824
H -3.409	-7.698	-20.528
H -1.303	-7.286	-21.646
H -1.823	-8.952	-21.877
N -3.712	-10.508	-23.054
H -3.465	-9.973	-23.846
H -3.5121632653061226	-11.494	-23.049142857142858
