61

C 19.589	-4.622	-26.155
O 18.908	-4.351	-25.164
N 20.014	-5.846	-26.429
C 19.728	-6.978	-25.556
C 20.367	-6.779	-24.191
O 19.71	-6.93	-23.16
C 20.233	-8.28	-26.185
C 19.389	-8.735	-27.358
O 19.084	-7.905	-28.232
O 19.041	-9.937	-27.419
H 20.53	-5.998	-27.248
H 18.656	-7.04	-25.431
H 21.243	-8.132	-26.532
H 20.224	-9.055	-25.435
N 21.65	-6.426	-24.194
C 22.375	-6.16	-22.959
C 21.691	-5.055	-22.165
O 21.433	-5.211	-20.974
C 23.819	-5.749	-23.251
C 24.643	-6.809	-23.958
C 26.058	-6.314	-24.207
N 26.87	-7.278	-24.947
C 27.408	-7.041	-26.149
N 27.171	-5.89	-26.78
N 28.186	-7.953	-26.72
H 22.119	-6.347	-25.052
H 22.377	-7.065	-22.37
H 23.806	-4.867	-23.872
H 24.306	-5.51	-22.315
H 24.681	-7.696	-23.347
H 24.179	-7.035	-24.906
H 26.006	-5.398	-24.77
H 26.526	-6.123	-23.252
H 27.048	-8.141	-24.515
H 26.592	-5.194	-26.357
H 27.577	-5.713	-27.68
H 28.374	-8.823	-26.249
H 28.594	-7.78	-27.617
N 21.386	-3.951	-22.843
C 20.747	-2.798	-22.212
C 19.458	-3.198	-21.504
O 19.164	-2.712	-20.412
C 20.457	-1.72	-23.261
C 19.694	-0.493	-22.758
C 20.473	0.225	-21.665
C 19.397	0.455	-23.909
H 21.602	-3.908	-23.801
H 21.433	-2.4	-21.482
H 21.399	-1.389	-23.67
H 19.88	-2.171	-24.057
H 18.751	-0.812	-22.337
H 19.899	1.065	-21.306
H 21.412	0.577	-22.064
H 20.662	-0.456	-20.849
H 20.325	0.763	-24.369
H 18.873	1.324	-23.537
H 18.783	-0.049	-24.64
N 18.697	-4.088	-22.127
H 18.987	-4.443	-22.994
H 19.868194630872484	-3.866778523489933	-26.850194630872483
H 17.82965306122449	-4.409959183673469	-21.727326530612242
