55

H 17.171	-6.399	-22.592
H 14.779	-6.253	-22.978
H 15.152	-6.11	-21.26
H 14.865	-3.722	-21.341
H 14.663	-3.766	-23.093
H 12.664	-5.363	-22.236
H 13.666	-2.138	-21.259
H 12.056	-1.633	-20.863
H 10.578	-4.706	-21.709
H 10.29	-3.094	-21.122
N 18.787	-6.113	-20.278
C 19.212	-6.859	-19.098
C 19.634	-5.91	-17.982
O 19.167	-6.036	-16.847
C 20.384	-7.812	-19.409
C 20.831	-8.542	-18.154
C 20.003	-8.81	-20.484
H 19.307	-6.194	-21.108
H 18.374	-7.449	-18.757
H 21.214	-7.223	-19.771
H 21.626	-9.231	-18.402
H 19.998	-9.088	-17.736
H 21.192	-7.823	-17.43
H 19.185	-9.421	-20.132
H 20.851	-9.438	-20.708
H 19.699	-8.281	-21.375
N 20.516	-4.962	-18.315
C 20.995	-3.977	-17.343
C 21.913	-2.934	-17.999
C 23.242	-3.464	-18.459
N 24.28	-3.657	-17.584
C 23.658	-3.792	-19.704
C 25.291	-4.092	-18.303
N 24.967	-4.191	-19.599
H 20.855	-4.929	-19.238
H 21.551	-4.507	-16.582
H 21.412	-2.517	-18.856
H 22.103	-2.145	-17.287
H 23.072	-3.752	-20.612
H 26.253	-4.356	-17.895
H 25.606	-4.229	-20.34
C 17.447	-4.552	-21.551
C 17.719	-5.324	-20.263
O 16.989	-5.191	-19.281
C 16.697	-5.429	-22.557
C 15.228	-5.628	-22.222
C 14.485	-4.3	-22.17
N 13.046	-4.48	-21.994
C 12.221	-3.534	-21.55
N 12.684	-2.341	-21.196
N 10.926	-3.797	-21.45
H 16.847	-3.686	-21.318
H 16.764	-4.973	-23.533
H 18.35686394557823	-4.214258503401361	-21.97026530612245
H 20.149771812080537	-3.4692885906040267	-16.871194630872484
