48

C 19.818	-3.27	-16.686
O 19.75	-3.168	-15.464
N 18.883	-2.8	-17.511
C 17.663	-2.156	-17.029
C 16.949	-3.003	-15.981
O 16.623	-2.522	-14.895
C 16.714	-1.903	-18.198
C 17.101	-0.723	-19.068
C 16.248	-0.626	-20.318
O 15.096	-1.062	-20.34
N 16.803	-0.038	-21.364
H 19.026	-2.878	-18.481
H 17.937	-1.211	-16.588
H 16.689	-2.784	-18.82
H 15.725	-1.724	-17.809
H 16.98	0.184	-18.497
H 18.136	-0.831	-19.361
H 17.718	0.296	-21.272
H 16.273	0.041	-22.186
N 16.717	-4.266	-16.304
C 15.95	-5.139	-15.432
C 16.724	-5.475	-14.156
O 16.16	-5.459	-13.064
C 15.537	-6.433	-16.164
C 14.662	-6.086	-17.368
C 14.791	-7.372	-15.223
C 14.409	-7.251	-18.303
H 17.075	-4.621	-17.148
H 15.047	-4.608	-15.162
H 16.431	-6.93	-16.505
H 13.704	-5.735	-17.016
H 15.142	-5.3	-17.933
H 15.432	-7.633	-14.396
H 14.51	-8.266	-15.758
H 13.904	-6.881	-14.85
H 13.784	-6.924	-19.121
H 13.91	-8.044	-17.763
H 15.349	-7.614	-18.691
N 18.017	-5.756	-14.286
C 18.84	-6.079	-13.128
C 20.21	-6.568	-13.573
H 18.432	-5.74	-15.18
H 18.352	-6.877	-12.585
H 20.098	-7.425	-14.222
H 20.791	-6.845	-12.707
H 20.716	-5.777	-14.106
H 20.639530201342282	-3.763476510067114	-17.144577181208053
H 18.935510067114095	-5.207201342281879	-12.470919463087247
