60

N 12.798	-7.582	-12.306
H 16.028	-4.807	-11.3
H 14.41	-5.473	-9.054
H 16.537	-6.973	-10.566
H 15.724	-7.665	-9.167
H 14.513	-9.505	-10.522
H 13.718	-5.643	-11.843
H 12.577	-9.686	-12.135
N 17.528	-4.754	-8.484
C 18.458	-4.459	-7.415
C 19.575	-5.477	-7.323
O 20.022	-5.826	-6.228
H 17.759	-4.53	-9.412
H 18.886	-3.483	-7.583
H 17.919	-4.446	-6.477
N 20.019	-5.966	-8.471
H 19.605	-5.666	-9.311
C 18.973	-4.865	-12.213
O 18.957	-4.988	-10.985
N 19.09	-3.696	-12.826
C 19.177	-2.436	-12.102
C 17.856	-2.145	-11.393
O 17.836	-1.619	-10.281
C 19.525	-1.318	-13.09
C 19.905	0.01	-12.461
C 20.567	0.932	-13.467
O 19.848	1.533	-14.298
O 21.816	1.047	-13.451
H 19.133	-3.679	-13.809
H 19.96	-2.525	-11.367
H 20.354	-1.644	-13.701
H 18.671	-1.15	-13.731
H 19.011	0.487	-12.085
H 20.59	-0.167	-11.645
N 16.759	-2.504	-12.047
C 15.426	-2.359	-11.473
C 15.26	-3.279	-10.264
O 14.839	-2.846	-9.191
C 14.372	-2.702	-12.531
C 12.938	-2.463	-12.088
C 12.587	-0.993	-12.002
O 12.301	-0.388	-13.057
O 12.586	-0.439	-10.885
H 16.847	-2.869	-12.955
H 15.296	-1.335	-11.159
H 14.557	-2.103	-13.408
H 14.473	-3.746	-12.792
H 12.275	-2.936	-12.794
H 12.8	-2.908	-11.113
N 15.62	-4.544	-10.442
C 15.429	-5.557	-9.405
C 16.365	-5.334	-8.222
O 16.035	-5.681	-7.087
C 15.63	-6.961	-9.982
C 14.506	-7.421	-10.865
N 14.113	-8.734	-10.986
C 13.688	-6.711	-11.685
C 13.094	-8.782	-11.851
H 18.8801677852349	-5.712355704697987	-12.851657718120805
H 20.778795918367347	-6.630734693877551	-8.507081632653062
