61

C 31.928	-9.376	-24.279
C 30.481	-9.731	-23.972
O 29.568	-9.428	-24.744
C 32.099	-7.866	-24.415
C 31.672	-7.084	-23.188
C 32.001	-5.615	-23.349
N 31.547	-4.814	-22.216
C 32.143	-3.687	-21.819
N 33.174	-3.198	-22.503
N 31.695	-3.034	-20.755
H 32.548	-9.729	-23.471
H 33.14	-7.651	-24.605
H 31.514	-7.523	-25.255
H 30.607	-7.195	-23.049
H 32.194	-7.47	-22.324
H 33.069	-5.515	-23.44
H 31.529	-5.252	-24.248
H 30.759	-5.136	-21.725
H 33.506	-3.671	-23.323
H 33.623	-2.353	-22.197
H 30.904	-3.378	-20.242
H 32.155	-2.193	-20.448
N 30.288	-10.38	-22.849
C 28.974	-10.827	-22.436
C 28.599	-10.172	-21.121
O 29.453	-9.605	-20.437
C 28.934	-12.357	-22.312
C 29.981	-12.931	-21.398
C 29.726	-13.105	-20.046
C 31.224	-13.301	-21.892
C 30.686	-13.634	-19.208
C 32.189	-13.83	-21.057
C 31.921	-13.997	-19.714
H 31.06	-10.548	-22.261
H 28.268	-10.517	-23.192
H 27.968	-12.654	-21.932
H 29.077	-12.791	-23.292
H 28.764	-12.822	-19.649
H 31.436	-13.17	-22.942
H 30.475	-13.765	-18.155
H 33.154	-14.112	-21.454
H 32.674	-14.411	-19.06
N 27.332	-10.24	-20.769
C 26.865	-9.62	-19.547
C 25.586	-8.784	-19.785
C 25.13	-8.113	-18.487
C 24.474	-9.643	-20.372
C 23.915	-7.232	-18.661
H 26.7	-10.731	-21.334
H 27.641	-8.952	-19.205
H 25.823	-8.018	-20.508
H 24.889	-8.873	-17.758
H 25.936	-7.5	-18.108
H 24.807	-10.079	-21.301
H 23.603	-9.028	-20.554
H 24.221	-10.428	-19.676
H 23.1	-7.817	-19.061
H 24.15	-6.431	-19.346
H 23.628	-6.818	-17.706
H 32.23880952380952	-9.86295918367347	-25.161204081632654
H 26.692651006711408	-10.374744966442952	-18.77502013422819
