43

C 15.723	-17.83	-12.435
O 16.026	-18.794	-11.736
N 16.574	-16.87	-12.754
C 17.919	-16.809	-12.206
C 17.872	-16.424	-10.729
O 18.602	-16.98	-9.907
C 18.743	-15.804	-13.013
C 19.976	-15.292	-12.324
C 21.094	-16.094	-12.183
C 20.015	-13.997	-11.838
C 22.231	-15.611	-11.569
C 21.148	-13.51	-11.222
C 22.257	-14.318	-11.087
H 16.292	-16.18	-13.392
H 18.364	-17.788	-12.3
H 19.058	-16.273	-13.934
H 18.12	-14.953	-13.249
H 21.073	-17.106	-12.56
H 19.146	-13.366	-11.943
H 23.099	-16.245	-11.466
H 21.166	-12.498	-10.848
H 23.145	-13.937	-10.609
N 16.994	-15.483	-10.399
C 16.825	-15.025	-9.024
C 16.351	-16.158	-8.123
O 16.833	-16.311	-7.003
C 15.833	-13.863	-8.967
C 16.352	-12.593	-9.614
S 15.093	-11.308	-9.748
C 14.634	-11.089	-8.031
H 16.444	-15.077	-11.107
H 17.784	-14.68	-8.668
H 14.923	-14.156	-9.471
H 15.608	-13.65	-7.933
H 17.169	-12.213	-9.02
H 16.711	-12.831	-10.605
H 15.509	-10.824	-7.456
H 14.217	-12.011	-7.651
H 13.899	-10.302	-7.953
N 15.42	-16.956	-8.63
H 15.088	-16.785	-9.539
H 14.739536912751678	-17.720416107382547	-12.824476510067115
H 15.037673469387755	-17.728979591836733	-8.10334693877551
