63

C 14.869	-18.07	-7.871
C 15.794	-19.285	-7.919
O 15.56	-20.289	-7.24
C 13.49	-18.432	-8.403
H 14.761	-17.754	-6.844
H 12.856	-17.558	-8.379
H 13.057	-19.207	-7.79
H 13.579	-18.784	-9.42
N 16.847	-19.189	-8.714
C 17.777	-20.29	-8.886
C 18.941	-20.169	-7.903
O 19.133	-19.124	-7.271
C 18.3	-20.315	-10.328
O 19.028	-21.503	-10.603
H 17.009	-18.35	-9.193
H 17.244	-21.208	-8.688
H 17.465	-20.257	-11.01
H 18.949	-19.466	-10.485
H 18.405	-22.228	-10.751
N 19.713	-21.242	-7.783
C 20.884	-21.265	-6.913
C 22.038	-20.488	-7.537
O 23.061	-20.254	-6.891
C 21.339	-22.702	-6.657
C 21.76	-23.436	-7.925
C 22.61	-24.655	-7.614
C 21.867	-25.649	-6.743
N 22.725	-26.799	-6.364
H 19.487	-22.047	-8.298
H 20.615	-20.804	-5.974
H 22.178	-22.687	-5.977
H 20.528	-23.25	-6.201
H 20.875	-23.756	-8.454
H 22.328	-22.76	-8.548
H 22.883	-25.137	-8.54
H 23.503	-24.335	-7.096
H 21.539	-25.145	-5.846
H 21.007	-26.013	-7.286
H 23.052	-27.301	-7.214
H 22.19	-27.462	-5.769
H 23.553	-26.467	-5.83
N 21.875	-20.109	-8.799
C 22.906	-19.381	-9.522
C 22.486	-19.139	-10.973
C 22.191	-20.41	-11.754
C 21.822	-20.095	-13.195
C 21.502	-21.357	-13.983
N 20.309	-22.063	-13.449
H 21.032	-20.315	-9.251
H 23.804	-19.979	-9.509
H 21.602	-18.523	-10.98
H 23.282	-18.613	-11.479
H 23.068	-21.039	-11.746
H 21.368	-20.929	-11.283
H 20.956	-19.45	-13.202
H 22.652	-19.591	-13.664
H 21.317	-21.086	-15.013
H 22.355	-22.018	-13.935
H 20.102	-22.902	-14.03
H 19.481	-21.435	-13.465
H 20.478	-22.369	-12.47
H 15.270068027210884	-17.25912925170068	-8.423469387755103
H 23.11210067114094	-18.423744966442953	-9.035832214765101
