59

C 24.887	-16.492	-8.092
C 25.307	-15.521	-9.187
O 25.394	-14.313	-8.96
C 26.034	-16.715	-7.105
C 25.669	-17.647	-5.961
S 26.998	-17.833	-4.756
C 26.283	-19.059	-3.659
H 25.152	-18.398	-8.958
H 24.041	-16.076	-7.563
H 26.873	-17.139	-7.636
H 26.324	-15.764	-6.687
H 24.8	-17.252	-5.457
H 25.435	-18.619	-6.371
H 26.064	-19.956	-4.215
H 25.373	-18.67	-3.23
H 26.984	-19.286	-2.869
N 25.566	-16.061	-10.374
C 25.89	-15.248	-11.537
C 25.311	-15.879	-12.796
O 25.305	-17.102	-12.942
C 27.405	-15.061	-11.684
C 28.182	-16.357	-11.872
C 29.636	-16.121	-12.243
O 30.249	-16.932	-12.936
N 30.201	-15.013	-11.784
H 25.531	-17.04	-10.473
H 25.431	-14.281	-11.398
H 27.594	-14.431	-12.539
H 27.78	-14.569	-10.798
H 28.15	-16.916	-10.948
H 27.715	-16.933	-12.656
H 29.661	-14.41	-11.233
H 31.139	-14.843	-12.012
N 24.798	-15.04	-13.681
C 24.209	-15.496	-14.928
C 25.057	-15.015	-16.093
O 25.088	-13.817	-16.395
C 22.781	-14.953	-15.066
C 21.766	-15.883	-15.75
C 20.427	-15.189	-15.895
C 22.26	-16.349	-17.109
H 24.81	-14.077	-13.487
H 24.186	-16.575	-14.921
H 22.412	-14.726	-14.076
H 22.825	-14.032	-15.631
H 21.622	-16.755	-15.132
H 20.091	-14.848	-14.927
H 19.705	-15.881	-16.303
H 20.53	-14.344	-16.558
H 23.186	-16.887	-16.992
H 22.417	-15.492	-17.747
H 21.52	-16.998	-17.553
N 25.758	-15.939	-16.723
H 25.733	-16.866	-16.395
C 23.193	-18.048	-8.845
O 22.274	-17.318	-8.466
N 24.468	-17.751	-8.677
H 22.992677852348994	-18.97841610738255	-9.317536912751677
H 26.311714285714285	-15.716959183673469	-17.533448979591835
