26

C 4.1722456035	2.3856954976	0.9769968483
C 4.3426151077	3.4900740903	0.152903231
C 3.4487609704	3.7115028274	-0.8848819486
C 2.3975477203	2.8318297618	-1.0949670221
C 2.227532427	1.7048458216	-0.2885051976
C 3.1261566123	1.5020209482	0.7605186897
C 1.0649889362	0.8186993293	-0.5466823457
C 0.9681331571	-0.5116177219	-0.4502103738
C 4.2991496333	-2.3124398575	-0.7218819397
C 3.2587390699	-1.428609569	-0.9681413503
C 2.1154594996	-1.4361211391	-0.1709056902
C 2.0321369837	-2.3632473466	0.8673703431
C 3.0764678654	-3.2412446647	1.1208555274
C 4.214013538	-3.2183414967	0.3263115297
H 4.8553504445	2.2123503228	1.7981370596
H 5.1605887923	4.1772645746	0.3243790745
H 3.5653552657	4.5732948131	-1.528821357
H 1.6988827828	3.0182334971	-1.9008879877
H 3.0026485073	0.6540568002	1.4174436709
H 0.1762391135	1.3448193097	-0.8742840116
H 5.1783275876	-2.2936002809	-1.352440376
H 3.3328986205	-0.7258600465	-1.7861349628
H 1.1442174917	-2.3937999106	1.4850943309
H 2.9984478488	-3.9469293346	1.9375170224
H 5.0267334852	-3.9062219627	0.5189937205
H 0.04743313277123273	-1.0005271025465754	-0.6335506145342465
