20

C -0.3243880309	-1.1979712755	-0.7075918656
C -1.5307441022	-0.8980486251	-0.2192669842
C -1.842500814	0.1363114333	0.7747851515
C -3.0555119533	0.5801696054	1.110307032
C -6.7151083206	-0.2668819927	0.8269328969
C -5.469840188	0.0495812131	1.3453215218
C -4.365940136	0.2313244726	0.5085551478
C -4.5576706651	0.1208618673	-0.8692192377
C -5.8060041652	-0.1911286954	-1.3900812528
C -6.8876825453	-0.3919036631	-0.5455111905
H -0.2525455005	-2.0668274165	-1.3536197556
H -2.3592342813	-1.514343213	-0.5448652217
H -1.0009425055	0.5387672197	1.3237784628
H -3.1103342296	1.2768413299	1.9399716269
H -7.5538843912	-0.4128841923	1.4948713386
H -5.3460958656	0.1497557169	2.4162109878
H -3.7306999117	0.3013917305	-1.5411951596
H -5.9337349526	-0.2680633653	-2.4619496365
H -7.8603073969	-0.6339674724	-0.952919397
H 0.5963119934287673	-0.7090618948534246	-0.5242516248657534
