81

H -9.347	1.06	-5.979
H -11.232	-0.663	-7.361
H -8.338	-0.814	-6.761
H -9.156	-2.331	-7.001
N -10.359	-1.274	-4.28
C -10.581	-2.151	-3.131
C -11.846	-1.821	-2.364
O -12.628	-2.727	-2.081
C -9.414	-2.079	-2.15
C -8.024	-2.337	-2.681
C -7.034	-2.273	-1.546
C -7.943	-3.658	-3.396
H -9.801	-0.477	-4.158
H -10.643	-3.166	-3.493
H -9.398	-1.08	-1.745
H -9.605	-2.772	-1.345
H -7.788	-1.546	-3.374
H -7.294	-3.026	-0.816
H -7.099	-1.298	-1.084
H -6.035	-2.446	-1.916
H -6.927	-3.813	-3.722
H -8.597	-3.61	-4.254
H -8.257	-4.462	-2.744
N -12.021	-0.519	-2.044
C -13.079	0.034	-1.171
C -12.508	0.347	0.178
O -12.697	-0.371	1.167
C -14.394	-0.773	-1.08
C -15.416	-0.147	-0.147
O -15.866	0.995	-0.415
O -15.788	-0.791	0.885
H -11.397	0.16	-2.377
H -13.281	1.003	-1.607
H -14.828	-0.858	-2.065
H -14.131	-1.754	-0.712
N -11.684	1.348	0.178
C -11.044	1.805	1.392
C -11.703	3.122	1.866
O -12.594	3.648	1.204
C -9.47	1.926	1.218
C -8.732	2.123	2.55
C -8.937	0.688	0.521
H -11.522	1.77	-0.696
H -11.255	1.084	2.169
H -9.238	2.775	0.588
H -7.67	2.195	2.364
H -8.926	1.282	3.2
H -9.071	3.028	3.034
H -9.437	0.597	-0.433
H -9.138	-0.184	1.125
H -7.873	0.788	0.362
N -11.28	3.608	3.004
C -11.801	4.842	3.608
C -11.541	4.814	5.117
C -11.872	6.114	5.806
O -13.065	6.34	6.084
O -10.959	6.914	6.092
H -10.625	3.069	3.491
H -12.869	4.847	3.455
H -12.143	4.035	5.561
H -10.498	4.59	5.286
C -10.869	3.028	-5.799
C -11.233	1.63	-6.236
O -12.375	1.335	-6.527
C -10.051	3.716	-6.892
C -10.824	3.85	-8.191
O -11.732	4.704	-8.275
O -10.555	3.088	-9.144
H -11.769	3.592	-5.602
H -9.743	4.696	-6.559
H -9.168	3.123	-7.085
N -10.243	0.751	-6.224
C -10.459	-0.65	-6.609
C -10.907	-1.519	-5.449
O -11.744	-2.392	-5.615
C -9.195	-1.278	-7.223
C -9.052	-1.088	-8.712
O -9.814	-1.705	-9.48
O -8.157	-0.335	-9.135
H -10.333272108843536	2.9530272108843536	-4.900782312925171
H -11.383053691275167	5.761194630872483	3.1541476510067112
