49

C -8.634	8.021	2.541
O -7.507	8.406	2.258
N -9.221	8.364	3.67
C -8.508	9.192	4.637
C -7.611	8.275	5.419
O -6.403	8.472	5.524
C -9.47	9.883	5.593
C -10.572	10.69	4.955
C -11.448	11.322	6.017
C -10.015	11.746	4.024
H -10.143	8.075	3.855
H -7.939	9.919	4.074
H -9.927	9.124	6.211
H -8.896	10.541	6.229
H -11.133	9.974	4.377
H -10.85	11.974	6.638
H -11.889	10.548	6.628
H -12.233	11.895	5.544
H -9.377	12.416	4.581
H -10.828	12.304	3.585
H -9.44	11.269	3.243
N -8.217	7.206	5.891
C -7.535	6.156	6.615
C -6.559	5.397	5.698
O -5.745	4.607	6.144
C -8.542	5.213	7.24
O -9.476	5.941	8.034
H -9.199	7.151	5.791
H -6.99	6.661	7.392
H -9.054	4.684	6.448
H -8.025	4.502	7.868
H -10.113	6.358	7.425
N -6.688	5.648	4.412
C -5.881	5.061	3.366
C -6.35	5.636	2.041
C -5.733	5.105	0.766
S -6.252	3.437	0.353
C -5.198	2.462	1.401
H -7.346	6.323	4.161
H -6.025	3.993	3.361
H -7.411	5.459	1.967
H -6.192	6.704	2.072
H -6.013	5.756	-0.047
H -4.658	5.116	0.873
H -4.165	2.661	1.157
H -5.419	1.416	1.263
H -5.384	2.744	2.429
H -9.161677852348994	7.3655906040268455	1.8695369127516779
H -4.836852348993288	5.321677852348993	3.527577181208054
