58

C 4.244	8.401	-2.099
O 3.772	7.593	-2.892
N 3.712	8.655	-0.897
C 2.456	8.054	-0.426
C 1.379	8.269	-1.481
O 0.802	7.319	-2.004
C 1.991	8.723	0.926
C 0.595	8.292	1.311
C 2.929	8.383	2.065
H 4.193	9.265	-0.294
H 2.61	6.997	-0.27
H 1.99	9.794	0.798
H 0.569	7.22	1.436
H -0.099	8.58	0.534
H 0.314	8.769	2.239
H 3.921	8.737	1.832
H 2.951	7.311	2.204
H 2.582	8.857	2.972
N 1.18	9.514	-1.835
C 0.123	9.907	-2.765
C 0.467	9.565	-4.243
O -0.325	9.801	-5.148
C -0.217	11.389	-2.571
C 0.862	12.355	-3.013
C 0.633	13.732	-2.433
C 1.496	14.775	-3.114
N 1.114	14.963	-4.532
H 1.781	10.19	-1.444
H -0.744	9.321	-2.496
H -1.111	11.613	-3.134
H -0.416	11.561	-1.524
H 1.821	11.987	-2.679
H 0.856	12.421	-4.091
H -0.406	14.007	-2.533
H 0.908	13.694	-1.389
H 1.385	15.714	-2.591
H 2.528	14.458	-3.065
H 1.23	14.097	-5.103
H 1.681	15.717	-4.982
H 0.112	15.242	-4.58
N 1.653	9.015	-4.473
C 2.085	8.608	-5.814
C 1.709	7.183	-6.044
O 1.666	6.695	-7.189
C 3.583	8.695	-5.971
C 4.147	10.075	-6.302
O 5.181	10.179	-6.965
N 3.506	11.119	-5.879
H 2.253	8.81	-3.724
H 1.612	9.242	-6.549
H 4.002	8.312	-5.055
H 3.85	7.997	-6.745
H 2.682	11.006	-5.362
H 3.891	12.003	-6.082
N 1.474	6.5	-4.967
H 1.484	6.931	-4.09
H 5.106711409395974	8.949617449664428	-2.355859060402685
H 1.212408163265306	5.566734693877551	-4.993367346938776
