76

H -1.213	2.644	-7.486
H -3.376	1.0	-6.563
H -2.734	-0.612	-8.192
H -0.708	1.217	-9.009
H -3.109	0.652	-10.284
H -2.773	2.155	-9.423
H -4.184	1.187	-8.993
N -1.712	-0.945	-5.758
C -0.838	-1.76	-4.955
C 0.316	-2.157	-5.812
O 1.345	-2.599	-5.334
C -1.532	-3.013	-4.419
C -0.725	-3.675	-3.304
C -2.94	-2.682	-3.992
H -2.56	-1.325	-6.079
H -0.479	-1.16	-4.13
H -1.589	-3.72	-5.234
H 0.253	-3.94	-3.679
H -1.231	-4.567	-2.964
H -0.614	-2.985	-2.48
H -2.91	-1.904	-3.244
H -3.428	-3.57	-3.619
H -3.454	-2.317	-4.871
N 0.146	-1.94	-7.105
C 1.22	-2.198	-8.015
H -0.712	-1.547	-7.396
H 1.616	-3.184	-7.837
H 0.869	-2.121	-9.033
C 1.097	5.155	-5.005
C -0.376	5.181	-5.167
O -1.079	5.788	-4.376
C 1.492	4.426	-3.702
C 2.959	4.571	-3.243
C 3.25	3.688	-2.03
C 3.926	4.279	-4.378
H 1.56	4.677	-5.856
H 0.857	4.797	-2.912
H 1.287	3.374	-3.834
H 3.108	5.593	-2.92
H 3.063	2.65	-2.273
H 2.613	3.963	-1.203
H 4.286	3.791	-1.742
H 3.776	3.269	-4.728
H 4.941	4.387	-4.024
H 3.751	4.973	-5.187
N -0.829	4.652	-6.216
C -2.238	4.651	-6.464
C -2.725	3.269	-6.352
O -3.723	2.997	-5.706
C -2.544	5.179	-7.842
C -1.985	6.55	-8.112
C -2.303	6.979	-9.511
C -3.789	7.256	-9.697
N -4.109	7.692	-11.071
H -0.191	4.244	-6.837
H -2.722	5.278	-5.727
H -2.142	4.495	-8.575
H -3.618	5.221	-7.947
H -2.42	7.256	-7.419
H -0.912	6.525	-7.983
H -1.713	7.846	-9.764
H -2.026	6.131	-10.123
H -4.351	6.358	-9.492
H -4.085	8.031	-9.006
H -3.661	8.601	-11.316
H -5.139	7.777	-11.19
H -3.806	6.983	-11.774
N -2.013	2.384	-6.976
C -2.363	1.051	-6.931
C -1.425	0.321	-6.009
O -0.397	0.876	-5.575
C -2.325	0.381	-8.314
O -0.976	0.308	-8.779
C -3.158	1.15	-9.327
H 1.3714149659863946	6.134013605442177	-4.977340136054422
H 1.9948523489932886	-1.4755704697986576	-7.8591677852349
