46

H -7.312	8.006	-3.516
H -5.579	6.614	-2.917
H -5.761	5.898	-4.535
H -3.462	6.736	-3.914
H -4.095	7.46	-5.396
H -4.666	8.077	-2.037
H -3.305	10.637	-1.981
H -5.048	10.683	-1.928
H -4.996	9.08	-0.039
H -4.498	10.738	0.266
C -2.673	7.463	0.187
S -2.668	9.249	0.501
C -2.273	7.045	-1.195
C -2.602	5.61	-1.468
O -3.778	5.235	-1.546
C -1.474	4.662	-1.661
C -1.464	3.506	-0.694
C -0.053	2.978	-0.541
C 0.025	1.84	0.447
C 1.464	1.421	0.597
C -6.947	8.377	-5.336
O -6.307	8.233	-6.393
N -6.679	7.767	-4.228
C -5.579	6.808	-3.984
C -4.202	7.405	-4.323
C -3.96	8.772	-3.724
O -3.499	9.707	-4.388
N -4.303	8.876	-2.473
C -4.183	10.074	-1.707
C -4.225	9.815	-0.222
H -3.662	7.064	0.346
H -1.959	7.037	0.874
H -1.201	7.158	-1.268
H -2.755	7.659	-1.938
H -0.546	5.208	-1.579
H -1.593	4.3	-2.668
H -2.098	2.717	-1.074
H -1.826	3.843	0.266
H 0.582	3.783	-0.202
H 0.295	2.626	-1.5
H -0.539	0.996	0.08
H -0.357	2.167	1.403
H 1.529	0.606	1.301
H 2.044	2.258	0.959
H 1.848	1.102	-0.361
H -7.76713422818792	9.03589932885906	-5.323436241610738
