64

H 1.451	-11.801	0.758
N 1.098	-8.378	3.059
C 0.984	-7.671	4.279
C 0.139	-6.461	4.179
O -0.622	-6.16	5.087
H 1.871	-8.179	2.495
H 0.507	-8.348	4.959
H 1.965	-7.408	4.648
N 0.253	-5.776	3.07
C -0.473	-4.563	2.824
C -1.946	-4.896	2.802
O -2.755	-4.164	3.347
C -0.027	-3.972	1.489
C 0.158	-2.454	1.412
C 0.627	-2.063	0.027
C -1.115	-1.723	1.773
H 0.871	-6.084	2.368
H -0.266	-3.862	3.618
H 0.916	-4.43	1.229
H -0.758	-4.266	0.752
H 0.934	-2.152	2.103
H -0.107	-2.373	-0.702
H 1.57	-2.547	-0.181
H 0.752	-0.992	-0.021
H -1.359	-1.921	2.806
H -1.916	-2.095	1.154
H -0.99	-0.66	1.622
N -2.272	-6.053	2.22
C -3.634	-6.552	2.199
C -3.706	-7.901	1.508
H -1.563	-6.573	1.78
H -4.257	-5.851	1.663
H -3.091	-8.609	2.042
H -3.368	-7.812	0.487
H -4.733	-8.24	1.527
C 3.027	-6.43	0.494
O 2.177	-6.054	1.241
N 2.755	-7.039	-0.61
C 1.376	-7.266	-1.041
C 0.582	-8.084	-0.033
O -0.535	-7.691	0.339
C 1.325	-7.897	-2.444
C -0.105	-8.167	-2.893
C 2.012	-6.992	-3.429
H 3.499	-7.309	-1.187
H 0.878	-6.312	-1.058
H 1.874	-8.827	-2.413
H -0.656	-7.239	-2.924
H -0.579	-8.841	-2.194
H -0.097	-8.615	-3.876
H 1.511	-6.036	-3.448
H 1.992	-7.433	-4.415
H 3.036	-6.84	-3.119
N 1.16	-9.17	0.447
C 0.47	-10.014	1.392
C 0.186	-9.258	2.688
O -0.863	-9.437	3.304
C 1.269	-11.273	1.682
H 2.076	-9.409	0.182
H -0.454	-10.3	0.913
H 0.714	-11.908	2.357
H 2.215	-11.001	2.129
H 4.04955033557047	-6.299476510067114	0.7473691275167785
H -4.011013422818792	-6.640328859060403	3.2101140939597315
