52

C -4.159	-6.675	3.607
O -5.256	-6.22	3.894
N -3.332	-7.226	4.489
C -3.697	-7.429	5.88
C -3.932	-6.127	6.592
O -4.817	-6.024	7.445
C -2.681	-8.288	6.602
C -2.597	-9.681	6.033
C -1.659	-10.569	6.789
O -2.071	-11.131	7.807
O -0.508	-10.753	6.369
H -2.439	-7.501	4.19
H -4.64	-7.949	5.869
H -1.709	-7.824	6.522
H -2.959	-8.361	7.643
H -3.584	-10.116	6.073
H -2.282	-9.61	5.002
N -3.171	-5.139	6.231
C -3.349	-3.801	6.776
C -4.687	-3.216	6.283
O -5.468	-2.662	7.071
C -2.192	-2.889	6.342
C -0.876	-3.516	6.78
C -2.353	-1.512	6.97
C 0.322	-2.963	6.088
H -2.443	-5.339	5.592
H -3.364	-3.873	7.853
H -2.189	-2.763	5.269
H -0.74	-3.356	7.838
H -0.91	-4.577	6.586
H -2.347	-1.601	8.047
H -3.288	-1.079	6.646
H -1.536	-0.881	6.653
H 0.39	-1.901	6.266
H 0.216	-3.161	5.031
H 1.204	-3.461	6.461
N -4.983	-3.406	4.991
C -6.205	-2.859	4.397
C -6.257	-3.006	2.834
C -7.434	-2.247	2.277
C -5.002	-2.515	2.164
H -4.371	-3.949	4.447
H -6.206	-1.81	4.66
H -6.384	-4.055	2.602
H -7.46	-2.358	1.203
H -7.342	-1.203	2.535
H -8.343	-2.649	2.702
H -4.88	-1.46	2.361
H -5.086	-2.682	1.101
H -4.152	-3.059	2.549
H -3.7925570469798657	-6.589147651006711	2.624234899328859
H -7.08613422818792	-3.3796375838926176	4.828590604026846
