82

C -6.796	-11.371	-1.6
C -7.238	-10.361	-2.683
O -7.008	-10.581	-3.866
C -7.591	-12.644	-1.73
C -9.091	-12.46	-1.64
C -9.815	-13.749	-1.832
O -10.032	-14.466	-0.84
O -10.188	-14.07	-2.97
H -5.749	-11.6	-1.731
H -7.338	-13.182	-2.63
H -7.292	-13.202	-0.856
H -9.338	-12.063	-0.667
H -9.404	-11.765	-2.405
N -7.886	-9.265	-2.272
C -8.363	-8.247	-3.235
C -7.239	-7.305	-3.563
O -7.159	-6.751	-4.653
C -9.534	-7.46	-2.634
C -10.216	-6.505	-3.596
O -10.336	-6.839	-4.791
O -10.546	-5.377	-3.199
H -8.072	-9.121	-1.321
H -8.692	-8.748	-4.133
H -10.283	-8.153	-2.301
H -9.177	-6.892	-1.787
N -6.355	-7.162	-2.61
C -5.219	-6.277	-2.717
C -4.154	-6.928	-3.59
O -3.38	-7.77	-3.136
C -4.646	-5.955	-1.316
C -3.516	-4.95	-1.392
C -5.732	-5.43	-0.417
H -6.468	-7.705	-1.806
H -5.549	-5.361	-3.184
H -4.263	-6.866	-0.882
H -3.879	-4.042	-1.854
H -2.71	-5.35	-1.988
H -3.177	-4.731	-0.39
H -6.146	-4.527	-0.842
H -5.321	-5.217	0.559
H -6.512	-6.171	-0.325
N -4.222	-6.622	-4.851
C -3.311	-7.115	-5.828
C -2.649	-5.942	-6.471
O -3.057	-4.796	-6.253
C -4.056	-7.895	-6.916
C -4.725	-9.171	-6.461
C -5.35	-9.88	-7.645
C -5.954	-11.213	-7.239
N -6.569	-11.934	-8.372
H -4.917	-6.003	-5.16
H -2.584	-7.762	-5.36
H -4.824	-7.25	-7.316
H -3.362	-8.128	-7.71
H -3.987	-9.817	-6.006
H -5.494	-8.933	-5.742
H -6.119	-9.25	-8.066
H -4.562	-10.039	-8.367
H -5.176	-11.832	-6.817
H -6.708	-11.032	-6.488
H -7.424	-11.468	-8.747
H -6.794	-12.921	-8.117
H -5.887	-12.005	-9.16
N -1.683	-6.201	-7.286
C -1.024	-5.167	-8.024
C 0.219	-5.689	-8.795
C 1.517	-5.976	-7.996
C 1.309	-6.992	-6.904
C 2.619	-6.429	-8.935
H -1.438	-7.142	-7.441
H -0.726	-4.385	-7.338
H -0.066	-6.606	-9.288
H 0.453	-4.962	-9.56
H 1.854	-5.075	-7.51
H 2.243	-7.156	-6.389
H 0.942	-7.917	-7.323
H 0.588	-6.586	-6.21
H 2.311	-7.33	-9.445
H 3.517	-6.624	-8.367
H 2.815	-5.653	-9.661
H -6.932115646258503	-10.977938775510204	-0.6413673469387754
H -1.7392483221476511	-4.746181208053692	-8.713395973154363
