47

C -6.038	1.396	-6.908
C -6.574	1.705	-5.49
O -7.18	2.744	-5.277
C -6.853	2.146	-7.945
O -6.417	1.813	-9.252
H -5.015	1.733	-6.985
H -7.889	1.859	-7.843
H -6.763	3.207	-7.791
H -6.91	1.017	-9.496
N -6.304	0.805	-4.544
C -6.696	0.913	-3.131
C -8.094	1.475	-2.901
O -9.082	0.782	-3.049
C -5.676	1.687	-2.295
C -4.338	1.036	-2.142
C -4.125	0.082	-1.164
C -3.286	1.386	-2.961
C -2.899	-0.506	-1.015
C -2.053	0.799	-2.81
C -1.86	-0.148	-1.837
H -5.763	0.039	-4.821
H -6.711	-0.102	-2.759
H -5.524	2.654	-2.751
H -6.107	1.835	-1.313
H -4.926	-0.211	-0.503
H -3.435	2.13	-3.729
H -2.754	-1.252	-0.25
H -1.234	1.08	-3.46
H -0.892	-0.612	-1.717
N -8.168	2.749	-2.659
C -9.417	3.407	-2.325
C -10.208	3.798	-3.601
O -10.909	4.816	-3.664
C -9.176	4.613	-1.366
O -10.404	5.147	-0.882
C -8.352	5.708	-2.023
H -7.332	3.254	-2.741
H -10.01	2.667	-1.806
H -8.627	4.234	-0.515
H -10.713	5.858	-1.461
H -7.391	5.309	-2.313
H -8.211	6.523	-1.329
H -8.869	6.069	-2.899
N -10.133	2.925	-4.565
H -9.543	2.161	-4.407
H -6.07439455782313	0.3594829931972787	-7.160578231292517
H -10.64369387755102	2.996469387755102	-5.421244897959184
