12

C 4.4995289447	-2.4386062347	0.4685294419
C 5.6956039782	-1.5122901957	0.3532991551
H 4.280917728	-2.8324681768	-0.5261333514
H 4.7750428919	-3.2959455124	1.0853305763
H 6.5274551689	-2.0732718293	-0.0858812784
C 3.2400677327	-1.7735123203	1.0509500111
H 3.2581630026	-1.8603469538	2.1380971405
H 2.3915801899	-2.3665556524	0.7094096164
H 6.9117695488	-0.7349908818	1.6559184924
O 6.0644684485	-1.1513474718	1.6662371588
H 5.474608060766448	-0.6676145875828947	-0.31452921968815795
H 3.0946119798644736	-0.7183694047539473	0.7711823260828947
