27

C 3.0334389997	-0.2746177113	0.6535230193
C 2.0055691496	1.3044636568	-1.6938910389
C 1.0869982556	0.6976186022	-0.6571534401
C 1.5294683427	0.0008826433	0.3943229904
C 0.5767764434	-0.4989871141	1.4854377453
C -0.4156468861	0.8091422798	-0.9204344279
C -0.9577309661	2.0199925263	-1.7108360488
C -0.780585143	-0.4528007196	-1.7517545769
C 3.4856371977	0.6353699708	1.8198321363
H 1.682994264	2.3249017139	-1.908808066
H 1.8971795833	0.7576002861	-2.6379634603
H 0.8495731984	0.0127914359	2.4107868963
H 0.7566530577	-1.5542085016	1.6883274103
H -0.449146967	2.941499344	-1.4300830123
H -0.822847957	1.9057452916	-2.7877008973
H -0.6003942055	-1.379119477	-1.2095570615
H -0.1479985167	-0.4773397241	-2.6414661329
H -1.8129255126	-0.4527376785	-2.1027866167
H 4.5020459606	0.4153532257	2.1252910743
H 2.8534487948	0.4731099235	2.6929796898
H 3.4084728736	1.6921317124	1.5596415453
H 3.1788947525355264	-1.3297606268460527	0.9332907043171053
H 3.5997962834157895	-0.10476067836644737	-0.2693028784703947
H 3.035772199632895	1.3109433106375	-1.3999537177493422
H -0.48804084743947374	-0.3616479378480263	1.3222677888717105
H -0.9708040850421052	0.9044331316855263	0.022028550048684203
H -2.0150952290296056	2.073141234529605	-1.433388875880263
