63

N 0.22	-11.237	6.51
C -0.326	-12.349	5.684
C -0.755	-11.785	4.322
O -1.889	-11.936	3.914
C -1.52	-12.969	6.448
C -1.041	-13.513	7.804
O -0.589	-12.781	8.663
N -1.122	-14.794	8.034
H -0.376	-10.505	6.753
H 0.436	-13.088	5.54
H -2.284	-12.225	6.624
H -1.947	-13.78	5.876
H -1.486	-15.392	7.349
H -0.82	-15.158	8.893
N 0.217	-11.155	3.696
C 0.132	-10.486	2.349
C 0.375	-8.993	2.538
O -0.551	-8.236	2.766
C -1.259	-10.659	1.661
H 1.082	-11.118	4.155
H 0.909	-10.85	1.704
H -1.466	-11.706	1.499
H -2.047	-10.223	2.256
H -1.244	-10.163	0.7
N 1.627	-8.599	2.451
C 2.003	-7.171	2.34
C 1.148	-6.474	1.272
O 1.159	-6.827	0.111
C 3.5	-7.22	2.033
C 3.942	-8.476	2.815
C 2.836	-9.477	2.456
H 1.842	-6.694	3.296
H 3.676	-7.341	0.977
H 4.005	-6.336	2.396
H 4.904	-8.823	2.473
H 3.975	-8.287	3.878
H 2.989	-9.901	1.475
H 2.74	-10.251	3.2
N 0.429	-5.498	1.748
C -0.48	-4.674	0.889
C 0.3	-3.44	0.408
O 1.515	-3.434	0.463
C -1.71	-4.249	1.725
C -2.475	-5.504	2.212
C -3.684	-5.146	3.122
C -4.781	-4.351	2.372
N -4.356	-2.942	2.125
H 0.499	-5.327	2.706
H -0.791	-5.243	0.025
H -1.398	-3.652	2.57
H -2.357	-3.657	1.096
H -2.822	-6.07	1.36
H -1.803	-6.128	2.781
H -4.116	-6.06	3.502
H -3.337	-4.565	3.965
H -4.995	-4.816	1.42
H -5.686	-4.335	2.959
H -3.41	-2.785	2.525
H -4.336	-2.76	1.101
H -5.032	-2.295	2.578
N -0.406	-2.435	-0.047
H -1.383	-2.495	-0.067
H 0.07138775510204076	-1.578061224489796	-0.3876938775510204
