50

C 0.109	18.665	-9.221
O 1.217	18.688	-9.722
N -0.562	19.717	-8.832
C 0.001	21.092	-8.976
C 0.344	21.668	-7.579
O -0.035	22.78	-7.263
C -1.061	22.001	-9.698
C -2.178	21.166	-10.346
O -1.964	20.416	-11.278
N -3.387	21.274	-9.861
H -1.453	19.585	-8.452
H 0.904	21.042	-9.56
H -1.524	22.698	-9.015
H -0.572	22.569	-10.476
H -3.559	21.883	-9.114
H -4.122	20.749	-10.239
N 1.057	20.912	-6.769
C 1.417	21.423	-5.403
C 2.831	22.041	-5.4
O 3.269	22.529	-4.379
C 1.309	20.224	-4.406
O 1.474	20.779	-3.109
C 2.473	19.216	-4.528
H 1.353	20.013	-7.031
H 0.711	22.184	-5.105
H 0.346	19.741	-4.463
H 1.635	21.722	-3.185
H 2.506	18.814	-5.527
H 3.422	19.68	-4.32
H 2.333	18.402	-3.831
N 3.456	21.989	-6.557
C 4.839	22.512	-6.856
C 5.681	21.453	-7.554
O 6.244	21.724	-8.596
C 5.637	22.917	-5.587
H 2.975	21.566	-7.295
H 4.765	23.363	-7.512
H 5.748	22.068	-4.932
H 6.623	23.258	-5.871
H 5.145	23.717	-5.058
N 5.72	20.301	-6.927
C 6.477	19.081	-7.376
C 7.125	19.222	-8.782
H 5.208	20.231	-6.094
H 5.851	18.208	-7.3
H 6.359	19.413	-9.52
H 7.848	20.023	-8.801
H 7.626	18.301	-9.038
H -0.40192617449664425	17.744355704697988	-9.062557046979865
H 7.278422818791946	19.036476510067114	-6.628436241610738
