60

C 8.088	14.441	1.276
O 8.476	13.57	2.031
N 6.906	14.475	0.726
C 5.865	13.431	0.983
C 6.196	12.178	0.188
O 6.22	11.07	0.686
C 4.503	13.961	0.532
C 4.074	15.192	1.34
C 3.92	15.127	2.712
C 3.825	16.387	0.697
C 3.522	16.236	3.426
C 3.428	17.495	1.409
C 3.273	17.43	2.778
O 2.874	18.548	3.482
H 6.705	15.211	0.111
H 5.851	13.188	2.036
H 4.558	14.235	-0.512
H 3.755	13.197	0.628
H 4.114	14.201	3.232
H 3.943	16.456	-0.373
H 3.407	16.16	4.497
H 3.237	18.419	0.888
H 2.819	18.315	4.412
N 6.426	12.443	-1.063
C 6.775	11.409	-2.065
C 7.816	10.428	-1.523
O 7.587	9.238	-1.503
C 7.268	12.17	-3.296
C 7.288	11.247	-4.497
C 7.857	12.013	-5.707
O 9.036	12.327	-5.654
O 7.079	12.246	-6.619
H 6.367	13.374	-1.352
H 5.885	10.838	-2.256
H 6.613	13.005	-3.499
H 8.261	12.549	-3.112
H 7.899	10.385	-4.285
H 6.275	10.93	-4.701
N 8.931	10.966	-1.109
C 10.054	10.162	-0.544
C 11.026	11.133	0.158
C 12.251	10.371	0.714
C 13.208	11.374	1.389
C 14.429	10.62	1.944
N 15.363	11.578	2.602
H 9.041	11.934	-1.166
H 10.545	9.655	-1.363
H 11.355	11.879	-0.551
H 10.511	11.635	0.965
H 11.933	9.637	1.441
H 12.761	9.862	-0.091
H 13.534	12.112	0.671
H 12.7	11.878	2.198
H 14.12	9.886	2.674
H 14.958	10.12	1.145
H 14.977	12.542	2.538
H 15.478	11.317	3.602
H 16.287	11.544	2.126
H 8.713395973154363	15.263926174496644	0.9954093959731544
H 9.6841677852349	9.399355704697987	0.16191275167785246
