75

C 11.818	5.274	4.336
C 12.561	4.488	5.429
N 12.886	5.39	6.571
H 9.82	6.005	-0.098
H 11.308	3.801	0.457
H 11.348	5.941	1.731
H 9.82	5.53	2.486
H 10.87	3.518	3.525
H 12.396	3.918	2.755
H 12.442	6.085	3.987
H 10.908	5.688	4.744
H 11.947	3.678	5.794
H 13.484	4.083	5.039
H 12.535	6.348	6.37
H 12.433	5.029	7.435
H 13.917	5.42	6.707
N 8.262	3.36	1.578
C 7.312	2.304	2.026
C 6.951	1.334	0.905
O 7.066	0.145	1.123
C 6.082	3.02	2.585
C 6.55	4.02	3.692
C 5.333	4.636	4.368
C 7.474	3.348	4.747
H 7.958	4.292	1.483
H 7.781	1.725	2.808
H 5.576	3.557	1.795
H 5.401	2.294	3.006
H 7.102	4.821	3.228
H 4.718	3.864	4.805
H 5.649	5.324	5.137
H 4.759	5.176	3.633
H 6.975	2.511	5.211
H 8.386	2.993	4.285
H 7.751	4.062	5.507
N 6.527	1.805	-0.245
C 6.18	0.855	-1.356
C 5.946	1.619	-2.677
C 5.467	0.585	-3.731
C 5.327	1.239	-5.117
C 4.828	0.18	-6.126
N 5.785	-0.961	-6.217
H 6.434	2.768	-0.382
H 5.309	0.279	-1.081
H 5.19	2.375	-2.531
H 6.859	2.095	-3.002
H 6.174	-0.229	-3.794
H 4.511	0.183	-3.427
H 4.62	2.055	-5.069
H 6.283	1.627	-5.441
H 3.866	-0.202	-5.818
H 4.728	0.625	-7.105
H 6.592	-0.798	-5.581
H 5.305	-1.842	-5.942
H 6.131	-1.048	-7.194
C 6.393	5.834	-0.817
O 6.182	4.642	-0.739
N 7.411	6.363	-1.449
C 8.424	5.525	-2.155
C 9.043	4.525	-1.167
O 8.876	3.335	-1.334
C 9.504	6.451	-2.736
H 7.504	7.334	-1.451
H 7.934	4.982	-2.95
H 9.983	7.014	-1.948
H 10.253	5.869	-3.253
H 9.057	7.143	-3.434
N 9.731	5.038	-0.176
C 10.396	4.206	0.874
C 9.502	3.043	1.322
O 9.934	1.913	1.419
C 10.731	5.123	2.073
C 11.485	4.329	3.165
H 5.741778523489932	6.545946308724832	-0.35144295302013423
H 7.038872483221477	0.17565771812080533	-1.4752080536912753
