50

C 3.551	-17.589	6.437
O 4.462	-18.182	6.982
N 2.331	-17.531	6.937
C 1.901	-18.273	8.158
C 2.28	-19.762	8.138
O 2.505	-20.35	9.178
C 0.378	-18.033	8.23
C 0.012	-17.664	6.772
C 1.182	-16.758	6.374
H 2.374	-17.814	9.013
H -0.149	-18.923	8.543
H 0.147	-17.22	8.903
H -0.031	-18.541	6.143
H -0.928	-17.135	6.726
H 1.244	-16.675	5.301
H 1.13	-15.783	6.835
N 2.338	-20.319	6.951
C 2.691	-21.766	6.795
C 4.019	-21.898	6.037
O 4.208	-22.788	5.229
C 1.544	-22.463	6.024
C 0.21	-22.306	6.786
O -0.282	-21.188	6.815
O -0.243	-23.315	7.301
H 2.153	-19.783	6.153
H 2.81	-22.224	7.766
H 1.437	-22.024	5.043
H 1.766	-23.515	5.906
N 4.897	-20.982	6.345
C 6.253	-20.937	5.722
C 7.291	-20.773	6.833
O 8.21	-21.56	6.926
C 6.309	-19.754	4.751
H 4.661	-20.298	7.005
H 6.446	-21.86	5.196
H 6.114	-18.829	5.269
H 7.282	-19.693	4.297
H 5.575	-19.888	3.973
N 7.065	-19.741	7.616
C 7.898	-19.303	8.798
C 8.566	-17.946	8.496
O 8.562	-17.571	7.334
C 9.039	-20.311	9.136
O 9.051	-17.353	9.447
H 6.273	-19.202	7.41
H 7.244	-19.188	9.651
H 8.624	-21.282	9.364
H 9.729	-20.402	8.311
H 9.587	-19.965	10.0
H 3.7059530201342286	-17.088543624161073	5.489134228187919
