71

C 3.585	11.005	-3.634
H 1.576	9.166	-1.636
H 3.734	10.522	-1.497
H 2.784	11.159	-4.346
H 4.128	11.923	-3.491
H 4.258	10.258	-4.014
N 0.878	11.474	-2.746
C -0.347	12.29	-2.616
C -0.851	11.885	-1.232
O -1.122	12.732	-0.418
C -1.288	11.868	-3.784
C -2.772	12.312	-3.712
C -3.308	13.06	-2.679
C -3.619	11.917	-4.738
C -4.645	13.394	-2.673
C -4.961	12.26	-4.725
C -5.469	12.997	-3.688
H 0.918	10.841	-3.49
H -0.097	13.339	-2.626
H -0.875	12.253	-4.703
H -1.277	10.79	-3.852
H -2.685	13.397	-1.87
H -3.223	11.33	-5.556
H -5.062	13.968	-1.864
H -5.628	11.972	-5.522
H -6.514	13.264	-3.67
N -0.939	10.6	-1.007
C -1.423	10.038	0.298
C -1.074	10.884	1.542
O -1.913	11.121	2.385
C -0.844	8.627	0.429
C -1.463	7.878	1.632
C -1.125	8.192	2.937
C -2.381	6.867	1.409
C -1.693	7.513	3.994
C -2.95	6.186	2.465
C -2.606	6.508	3.759
H -0.656	9.987	-1.719
H -2.499	9.961	0.237
H -1.058	8.071	-0.472
H 0.224	8.691	0.554
H -0.412	8.974	3.138
H -2.66	6.605	0.398
H -1.422	7.768	5.007
H -3.665	5.399	2.277
H -3.051	5.975	4.587
N 0.152	11.334	1.629
C 0.561	12.154	2.81
C 2.086	12.392	2.781
C 2.987	11.103	2.721
C 2.518	10.028	3.714
C 3.116	10.461	1.315
H 0.796	11.145	0.919
H 0.272	11.643	3.719
H 2.305	13.016	1.932
H 2.351	12.943	3.671
H 3.973	11.437	3.013
H 2.536	10.409	4.721
H 1.514	9.716	3.47
H 3.164	9.163	3.651
H 3.54	11.161	0.615
H 3.78	9.609	1.372
H 2.17	10.114	0.937
C 2.234	8.418	-3.318
O 2.948	8.436	-4.301
N 2.197	9.322	-2.372
C 3.006	10.586	-2.291
C 1.892	11.56	-1.923
O 1.959	12.315	-0.972
H 1.5562550335570469	7.606241610738254	-3.164442953020134
H 0.03318120805369118	13.124181208053692	2.7568590604026846
