48

C -12.158	26.316	6.073
O -12.07	27.331	5.4
O -12.551	26.234	7.226
H -14.4	24.979	5.514
H -12.273	23.833	3.667
H -12.801	25.499	3.573
H -11.753	24.209	6.135
H -10.72	25.087	5.032
N -15.122	22.888	3.156
C -16.06	22.529	2.05
C -16.82	21.265	2.502
O -16.57	20.179	2.014
C -15.235	22.265	0.765
C -14.26	23.432	0.587
N -14.579	24.625	0.209
C -12.894	23.49	0.791
C -13.519	25.367	0.175
N -12.448	24.702	0.53
H -14.523	22.199	3.494
H -16.766	23.33	1.894
H -14.683	21.339	0.816
H -15.891	22.226	-0.092
H -15.485	24.921	-0.019
H -12.285	22.662	1.119
H -13.518	26.409	-0.111
N -17.731	21.436	3.435
C -18.593	20.337	3.955
C -19.746	20.004	2.984
O -20.853	19.707	3.39
C -19.047	20.878	5.306
C -19.262	22.38	4.976
C -18.029	22.729	4.114
H -17.991	19.45	4.085
H -19.963	20.415	5.642
H -18.278	20.751	6.053
H -20.178	22.534	4.424
H -19.278	22.972	5.88
H -18.234	23.486	3.377
H -17.183	23.022	4.711
N -19.42	20.071	1.719
H -18.511	20.319	1.476
C -14.046	24.241	4.813
C -15.079	24.081	3.69
O -15.783	25.011	3.35
C -12.687	24.653	4.236
C -11.731	24.999	5.398
H -13.918619047619048	23.299108843537415	5.341448979591837
H -20.08195918367347	19.872551020408164	0.9529591836734694
