54

C -20.374	19.785	0.615
C -19.719	18.778	-0.341
O -20.211	18.544	-1.427
H -21.273	19.358	1.02
H -20.598	20.699	0.085
N -18.622	18.215	0.11
C -17.848	17.217	-0.668
C -17.977	15.837	-0.001
O -18.369	15.716	1.144
C -16.355	17.631	-0.688
C -16.093	19.069	-1.196
C -14.572	19.275	-1.37
C -16.824	19.394	-2.52
H -18.274	18.449	0.986
H -18.243	17.163	-1.667
H -16.009	17.597	0.333
H -15.759	16.937	-1.251
H -16.419	19.739	-0.425
H -14.067	19.131	-0.426
H -14.176	18.57	-2.088
H -14.37	20.277	-1.719
H -17.893	19.301	-2.398
H -16.605	20.41	-2.814
H -16.507	18.735	-3.311
N -17.629	14.847	-0.776
C -17.657	13.419	-0.357
C -16.2	12.958	-0.347
O -15.32	13.71	-0.706
C -18.466	12.591	-1.37
O -19.731	13.235	-1.449
H -17.341	15.049	-1.679
H -18.052	13.328	0.632
H -18.003	12.575	-2.344
H -18.608	11.579	-1.019
H -19.727	14.01	-0.883
N -15.962	11.741	0.052
C -14.56	11.211	0.093
C -14.633	9.828	0.761
C -13.23	9.234	1.051
C -15.426	8.833	-0.128
C -12.423	10.161	1.98
H -16.7	11.165	0.329
H -13.97	11.913	0.662
H -15.189	9.962	1.671
H -13.362	8.278	1.532
H -12.686	9.072	0.132
H -16.432	9.192	-0.287
H -14.946	8.709	-1.088
H -15.479	7.868	0.356
H -12.95	10.311	2.91
H -11.465	9.71	2.191
H -12.252	11.119	1.514
H -19.679591836734694	19.9931768707483	1.4185918367346941
H -14.103275167785235	11.154268456375839	-0.9066241610738256
