14

C 2.813433327	-0.696066682	0.0
C 2.6711438395	0.7524756117	0.0
C 3.8659710595	1.5499963579	0.0
C 5.0587664319	0.9156033165	0.0
C 1.5355866844	-1.1733504138	0.0
N 1.4303050524	1.1779861634	0.0
O 1.0995699594	-2.4024673262	0.0
H 0.1362324445	-2.3945676958	0.0
H 3.7890988617	2.6273102692	0.0
H 5.966064333	1.5070210124	0.0
H 3.735724799219178	-1.1394379537698631	0.0
H 5.158647897697261	-0.11429350747808231	0.0
H 0.919895523419178	-0.320035121438356	0.0
H 0.8926417766875	0.36098515664999997	0.0
