16

C 0.6712510161	0.0245729774	0.0
C -0.6712510161	-0.0245729774	0.0
C -1.5355866844	1.1733504138	0.0
C -2.813433327	0.696066682	0.0
C -2.6711438395	-0.7524756117	0.0
N -1.4303050524	-1.1779861634	0.0
C -4.108188663	1.3184917366	0.0
C -5.1989846435	0.5302133787	0.0
O -1.0995699594	2.4024673262	0.0
H -4.1859081672	2.396812774	0.0
H -6.19298191	0.9540509768	0.0
H -0.1362324445	2.3945676958	0.0
H 1.2869421770808218	-0.828742314961644	0.0
H 1.2194567089833335	0.8575936117333334	0.0
H -3.5222536400479454	-1.3205725815958904	0.0
H -5.099103177702739	-0.4996834452780824	0.0
