15

C -0.8372540077	-1.1660666135	0.3524898239
C -1.404423585	0.1613358724	-0.186289366
C -2.1986805006	-1.7992260767	-0.0472822255
C -2.8279891681	-0.380027965	0.110345774
H 0.058558567	-0.6281709975	2.3053551277
H -0.6598089728	-2.2286971846	2.2310898083
H -1.6768824491	-0.8106207574	2.346323339
C -0.7675042388	-1.1968210542	1.8925695447
H -2.5832327959	-2.599054284	0.5882428017
H -2.2117478836	-2.1260103142	-1.0844272589
H -3.6107739455	-0.1000130442	-0.5944516365
H -3.1953239416	-0.1933620911	1.117603604
H 0.12423857855263176	-1.3827354961269736	-0.0892928959394737
H -0.9071620769217106	1.1018421136835526	0.02173695542697371
H -1.3533411712282895	0.45183878709671055	-1.2480160249835528
