12

C -0.8936686972	-0.2158593368	-0.8147345544
C 0.3274512895	0.7258365246	-0.8616808124
C 1.6875328504	0.0875880489	-0.6084263602
H 0.2003521461	1.5598245268	-0.1793153605
H 0.361186257	1.153503881	-1.8645144164
H 0.16674105	-1.6129515033	-1.5318450083
O -0.7380778649	-1.3105816292	-1.6300649403
N 1.8656964025	-1.1277255624	-0.8652283643
H -1.154625935818421	-0.4731041119361842	0.23615790652105262
H -1.7845869346506578	0.30872106732960525	-1.155608849425
H 2.4335391293863013	0.7782070116287672	-0.2643662314054794
H 2.7527297934061226	-1.5989744142653062	-0.7331910083040816
