11

C -2.1592721747	0.5293389943	-1.2989671978
C -2.7082790742	1.2740559128	-0.086832885
C -2.5058046811	0.2834466023	1.0662260353
F -1.9352647949	1.3493057813	-2.3177019783
F -3.0832149339	-0.3496056329	-1.6713148944
F -1.9825838074	2.3678418008	0.1405177451
F -3.9685892702	1.6329668759	-0.2296215384
F -2.316680439	0.9097287261	2.2128386599
F -3.5991760169	-0.4613669294	1.1736417943
H -1.6319030363151317	-0.3252832747026316	0.7930212389980262
H -1.268353937249342	0.004758590170394705	-0.9580929027749999
