11

Cl 4.8138350552	-0.5157600972	1.0647823907
C 0.3134013699	1.040865315	-0.7407072157
C 1.7038723473	1.1718516829	-0.2196312673
O -0.1082119776	1.9948146049	-1.3444051956
C 2.4213425752	2.3081040057	-0.1417759775
C 3.718619049	1.9418259678	0.3555123786
C 3.6540155525	0.6109650666	0.5184572065
H 2.0673203161	3.2855944881	-0.4162537257
H 4.5651533371	2.5744105586	0.5541765591
O 2.4650517009	0.1202057417	0.1851344478
H -0.21100791232222227	0.2229108218722221	-0.6130389273333333
