12

H -5.7918791696	2.9463225682	-0.7200310335
H -4.7895850676	3.1987333574	1.5317328676
C -3.0015065841	2.1424167185	1.0239020185
C -2.2804173158	1.4585883108	0.0411760502
C -2.8659920507	1.3109406491	-1.2159709267
C -4.1172903469	1.8458087515	-1.4894663459
C -4.8147390737	2.5329553394	-0.5085008605
C -4.2503018839	2.676353334	0.7523911531
H -2.5877692188	2.24271763	2.0176279553
H -2.3433401395	0.7793931555	-1.9978341274
H -4.5470191513	1.7215176522	-2.4747335577
H -1.3187148937068491	1.069124411139726	0.2475266369835617
