12

C -2.797259412	0.5500527628	0.8172043201
C -2.2046379098	-0.2490834677	-0.152239304
C -3.016436182	-0.8791210469	-1.0989482708
H -4.5984006314	1.3542146512	1.6216706292
H -2.1724600377	1.0376831753	1.5508030088
C -4.1707771309	0.7273261713	0.8555066965
C -4.972286865	0.0952387593	-0.093151555
C -4.3832672906	-0.7096097008	-1.0706977578
H -2.5705099285	-1.5028358141	-1.8590836554
H -5.0228399842	-1.189758738	-1.7964485279
H -1.1668089303150684	-0.36730024276849316	-0.16118647592876714
H -5.970606903365468	0.17151132371438849	-0.1349360895323741
