20

H 1.9043080033	-0.5682639549	2.2859326987
H 1.3171977072	-2.052025501	1.5527070369
C 1.4135795234	-0.355792828	0.2186327266
C 1.1000258771	-1.2634946638	-0.9755519184
C 1.9771808118	-1.1980625686	1.3995349851
C 2.3107864971	0.8252703949	-0.1674562526
C 2.0837428377	2.073859484	0.4062423176
C 2.9038216818	3.1491726614	0.0980201577
C 3.958205195	2.9933255592	-0.7898756769
C 4.1883279053	1.7527501453	-1.364254495
C 3.3730464813	0.6732142925	-1.0544571089
O 1.7902733625	-1.9217916408	-1.6584287858
H 1.2587843214	2.2049855828	1.0890870792
H 2.7136555708	4.1128764155	0.5518847997
H 4.5952220824	3.8334530066	-1.0330421062
H 5.0072911455	1.6183710302	-2.0582242366
H 3.5680997076	-0.2860954663	-1.5086670133
H 0.44783893844149647	-0.02325887393061221	0.5086188068802722
H 0.09164968854748201	-1.237553789446043	-1.0943715086848922
H 2.9899116513436246	-1.5512989523798657	1.3217190857308725
