9

C -1.492426232	-1.2371079219	0.5458171959
C -2.5768536638	-1.0814069081	-0.2022552171
C -0.4856881501	-2.3301223595	0.2842429057
H -2.8466468177	-1.8481598396	-0.9220288151
H 0.0128848019	-2.6359026579	1.2081912925
H -0.9890478632	-3.2116120518	-0.1182025641
H -1.2257282572510066	-0.4564149441442954	1.2077754264342282
H -3.1619948243261744	-0.2050395838261746	-0.20488788329060403
H 0.25404297609671056	-2.010823194613158	-0.4486828004427632
