36

C         1.0366650336   -1.5512890479   -0.1636869697
C        -0.1654340755   -1.6108215211    0.8085117287
C        -0.8856430509   -0.2761926605    0.5220288307
C         0.0203769501    0.3256093760   -0.5971067824
C         1.3010441875    0.8020572030    0.1309822628
C         2.0061646342   -0.5029132721    0.4365765357
O         0.4684007335   -0.8436887979   -1.2366331370
C        -0.5825440640    1.2893203790   -1.5899759335
C         1.6449739854   -2.8603382229   -0.6038110165
C         2.6472269981    0.5051877394   -0.4869402519
N        -2.1535547020   -0.7739982365    0.0307083544
N        -2.1693699899   -2.1318218037    0.0312617041
N        -1.1329398329   -2.6326083430    0.4125021629
H         0.1225734516   -1.7897368349    1.8393858671
H        -1.0075244030    0.3687839867    1.3852058795
Cl        1.1022721112    2.1422954979    1.2378917812
Cl        2.7570182442   -0.9273193005    1.9569746301
H        -0.8872893562    2.2125674567   -1.1009629817
H        -1.4515279635    0.8349450372   -2.0614436295
H         0.1503092322    1.5252601184   -2.3595380141
H         2.0402950103   -3.4008910428    0.2553897048
H         2.4522979850   -2.6783754862   -1.3110000187
H         0.8828666677   -3.4733222927   -1.0793757157
Cl        2.9216187851    0.2463812305   -2.2111332024
Cl        4.0124319737    1.3979389698    0.1716886704
C        -3.4599405283    1.2324690082    0.4611845315
C        -4.6804613617    1.8976122894    0.4627672830
C        -5.8391069383    1.2563175315    0.0641412083
C        -5.7618440619   -0.0708709905   -0.3425015576
C        -4.5556313975   -0.7473200521   -0.3533398158
C        -3.3877287547   -0.0963971077    0.0546220476
H        -2.5762556857    1.7654886021    0.7764900410
H        -4.7129550155    2.9304640007    0.7835448118
H        -6.7865306612    1.7769491416    0.0671133495
H        -6.6556399262   -0.5916823252   -0.6599529790
H        -4.5113408291   -1.7762796465   -0.6708281375
