28

C -5.5505119106	1.2499682125	-0.9187272448
C -6.9870046199	0.7954865407	-0.8947699705
C -7.5099300424	-0.3649749973	-1.281306944
C -9.0020937036	-0.6049345076	-1.1498854258
C -9.3832677503	-1.6442693532	-0.0801227673
C -10.8719262413	-1.8674702686	-0.0141474391
C -11.7126422496	-1.6168822957	0.9844879941
C -13.1866854015	-1.9148524769	0.8465129409
C -11.327950309	-1.0355299122	2.3230646671
H -5.4956423118	2.1740371246	-1.5021771408
H -13.5125172637	-2.6239707384	1.6138930572
H -13.4266689845	-2.3358972794	-0.1296698039
H -13.7808855201	-1.0058924923	0.9824175772
H -11.8947942344	-0.1191678311	2.5127566274
H -10.2704565495	-0.7981512033	2.4044389058
H -11.5803592386	-1.7346317255	3.1261643881
C -6.7215860107	-1.5090893848	-1.8752468485
H -6.7564083663	-2.3886127038	-1.2276993152
H -7.15392437	-1.8045415885	-2.8357324789
H -5.6758455373	-1.2645912227	-2.0417272843
H -7.6753908421	1.53484934	-0.4916862616
H -9.5029747701	0.3352013962	-0.9129755443
H -11.2976367746	-2.2852508254	-0.9235727384
H -8.9060428291	-2.6010141968	-0.3129811817
H -4.9058934399	0.5293325952	-1.4202377475
H -9.398583645	-0.9327649893	-2.1178449832
H -8.9800359686	-1.3256633475	0.8804172947
H -5.165210133959868	1.4280352790552633	0.07852613386052643
