12

C -2.8718468583	-1.0944895387	0.3553360553
O -3.7784618066	-1.0872547484	-0.4000725142
C -1.9371627525	0.0752735066	0.5943259238
O -2.3780655888	1.1601123046	-0.1513690155
C -0.5065409617	-0.3256390376	0.1985689811
H -0.2935055858	-1.3112038321	0.6194422907
H -2.6325141007	-1.988268058	0.9604206929
H -1.9617408811	0.2794821638	1.6729026058
H -1.7984303567	1.8888011789	0.0348933556
O -0.4354117531	-0.4447260294	-1.202893864
H -1.1173950399	0.099399276	-1.5806927297
H 0.2362302667289473	0.3589228084171052	0.575259881
