13

C 1.9118167621	1.3488796193	-0.498944079
C 1.7174464603	2.6666327942	-0.1156427762
C 0.478949504	3.0770208576	0.3537985798
C -0.5616828542	2.1642612584	0.4236805737
C -0.3809488164	0.8307109259	0.0617913681
C 0.8771124892	0.4335932349	-0.3930475777
H 2.8610802357	1.0166260481	-0.894927468
H 2.5328800416	3.3729257475	-0.1930570392
H 0.3192278562	4.1030642846	0.6542879403
H -1.5254056219	2.4950812932	0.7833842134
O 1.0803151354	-0.8320242966	-0.8628366428
H -1.1800406850684932	0.11827208966438352	0.14742462603972606
H 1.3962456797237408	-1.5533912187719423	-0.3328921186230217
