15

C 2.5271623156	-1.4289225993	-0.5470733066
C 2.2735092119	0.9828462853	0.1699245103
C 1.6458892006	-0.4160903551	0.2304612955
H 2.5619762021	-0.6188296159	2.2082058848
H 0.8604786461	-0.1902728414	2.2581400224
H 1.3565256017	-1.8489161172	1.8826512561
C 1.5027606654	2.0655648421	0.1639228056
C 1.5984164487	-0.7964812514	1.7305310126
H 2.1997579556	-2.4456068272	-0.3238590706
H 2.3619983184	-1.2801447934	-1.6182920527
H 1.9562206538	3.0495388958	0.1939213171
H 3.5847345304953944	-1.3496268649322367	-0.36550501103486843
H 3.3239804808664433	1.062675027232886	0.2502612529362416
H 0.6420451451835527	-0.4151017295151316	-0.2296424790657895
H 0.45979561471506836	2.0151854342808218	0.12558955558356164
