11

H -4.1282125266	-0.4136463569	-1.6143750652
H -1.7950279183	-0.3844673453	1.9912805473
H -3.4289918706	0.2450733058	1.9922471288
H -3.1636552874	-1.491517941	1.922399156
C -2.7711793863	-0.4829055816	0.0277075029
C -4.190907482	-0.2344775464	-0.5359169913
C -2.7884378686	-0.5287057119	1.5677638835
H -2.2646502470263155	0.3988872880539474	-0.34700212600921054
H -2.257630374475	-1.3396077902184211	-0.3780191011526316
H -4.347220527369737	0.8363187196532895	-0.38730920508092104
H -4.987569462884211	-0.8484798991572369	-0.15882983914473686
