51

C -4.909	8.324	2.974
O -6.074	8.715	2.957
N -4.5	7.321	3.744
C -5.423	6.617	4.628
C -5.737	7.444	5.871
O -6.876	7.471	6.336
C -4.861	5.25	5.062
C -4.296	4.502	3.85
C -5.943	4.43	5.75
C -3.926	3.063	4.136
H -3.561	7.044	3.715
H -6.342	6.447	4.084
H -4.067	5.421	5.773
H -5.032	4.504	3.061
H -3.407	5.012	3.506
H -6.703	4.161	5.03
H -6.388	5.013	6.542
H -5.507	3.534	6.165
H -4.817	2.505	4.386
H -3.235	3.026	4.965
H -3.463	2.629	3.262
N -4.725	8.123	6.402
C -4.908	8.953	7.586
C -5.864	10.103	7.289
O -6.601	10.553	8.166
C -3.563	9.497	8.073
C -2.797	10.269	7.013
C -1.694	11.129	7.601
O -1.755	11.425	8.813
O -0.771	11.505	6.85
H -3.84	8.069	5.987
H -5.339	8.334	8.359
H -3.738	10.156	8.911
H -2.95	8.669	8.398
H -2.354	9.566	6.324
H -3.486	10.908	6.481
N -5.85	10.569	6.043
C -6.721	11.66	5.627
C -6.207	12.287	4.323
C -6.494	11.466	3.071
C -7.251	12.253	2.019
O -8.42	12.61	2.273
O -6.675	12.513	0.942
H -5.243	10.164	5.388
H -6.707	12.409	6.405
H -6.668	13.252	4.202
H -5.137	12.416	4.4
H -5.555	11.143	2.648
H -7.078	10.604	3.343
H -4.172624161073825	8.783275167785234	2.354885906040269
H -7.75006711409396	11.303093959731545	5.502046979865772
