48

O -2.399	-2.913	-2.211
C -3.939	-0.805	-0.463
C -3.003	-1.557	0.472
C -4.231	0.592	0.071
H -5.049	0.348	-2.52
H -2.337	-0.357	-1.812
H -4.872	-1.349	-0.512
H -2.312	-0.861	0.924
H -2.453	-2.297	-0.088
H -3.581	-2.044	1.244
H -4.03	1.322	-0.698
H -3.602	0.79	0.927
H -5.268	0.655	0.366
N -4.323	-2.453	-3.278
H -5.025	-1.79	-3.443
C -7.772	-0.183	-4.894
C -6.294	0.149	-5.072
O -5.555	-0.589	-5.721
C -8.575	0.351	-6.082
C -8.106	-0.186	-7.425
C -9.234	-0.784	-8.243
O -10.2	-0.052	-8.547
O -9.153	-1.985	-8.579
H -7.885	-1.256	-4.847
H -9.612	0.08	-5.951
H -8.493	1.429	-6.102
H -7.663	0.622	-7.988
H -7.362	-0.951	-7.251
N -5.87	1.267	-4.49
C -4.481	1.701	-4.581
C -3.564	0.777	-3.785
O -2.391	0.61	-4.118
C -4.346	3.136	-4.067
C -4.615	4.191	-5.128
C -5.305	5.418	-4.567
O -4.595	6.349	-4.127
O -6.553	5.45	-4.567
H -6.507	1.815	-3.987
H -4.191	1.672	-5.62
H -5.046	3.283	-3.259
H -3.343	3.281	-3.693
H -3.674	4.492	-5.564
H -5.244	3.76	-5.893
N -4.109	0.178	-2.732
C -3.347	-0.732	-1.884
C -3.312	-2.136	-2.479
H -8.142496598639456	0.223891156462585	-3.986319727891156
H -4.396551020408164	-3.361285714285714	-3.7158367346938777
