50

H -4.001	-1.585	9.015
C -7.726	-0.582	10.155
O -6.561	-0.515	10.546
N -8.216	-1.64	9.517
C -7.393	-2.809	9.233
C -6.513	-2.583	8.007
O -5.454	-3.195	7.871
C -8.271	-4.036	9.035
H -9.153	-1.634	9.231
H -6.758	-2.985	10.09
H -8.41	-4.212	7.979
H -9.231	-3.87	9.502
H -7.795	-4.896	9.484
N -6.957	-1.703	7.116
C -6.207	-1.4	5.903
C -4.866	-0.75	6.235
O -3.905	-0.862	5.473
C -7.02	-0.478	4.992
C -6.809	-0.697	3.494
C -7.625	0.301	2.688
C -5.333	-0.587	3.144
H -7.809	-1.247	7.277
H -6.023	-2.331	5.386
H -8.067	-0.623	5.213
H -6.759	0.543	5.225
H -7.143	-1.69	3.231
H -7.685	-0.027	1.662
H -7.151	1.271	2.728
H -8.621	0.37	3.103
H -4.811	-1.459	3.51
H -4.919	0.299	3.602
H -5.222	-0.524	2.071
N -4.808	-0.068	7.375
C -3.586	0.603	7.804
C -2.554	-0.402	8.307
O -1.351	-0.2	8.15
C -3.897	1.621	8.901
C -4.734	2.796	8.421
C -5.274	3.632	9.564
O -4.498	3.94	10.492
O -6.474	3.98	9.53
H -5.607	-0.012	7.94
H -3.177	1.122	6.95
H -4.436	1.124	9.695
H -2.968	2.005	9.294
H -4.121	3.425	7.794
H -5.566	2.417	7.845
N -3.032	-1.481	8.918
H -8.403046979865772	0.22417449664429523	10.317630872483221
H -2.4186122448979592	-2.198469387755102	9.285755102040817
