47

C 5.538	-4.871	-1.88
H 3.746	-6.078	-5.127
H 6.376	-6.931	-5.407
H 4.653	-7.325	-2.958
H 6.224	-4.907	-3.876
H 4.477	-5.015	-3.699
H 7.635	-6.997	-3.274
H 6.79	-8.49	-2.869
H 6.772	-7.134	-1.743
H 5.44	-3.796	-1.856
H 6.5	-5.153	-1.479
H 4.755	-5.317	-1.284
N 4.214	-9.347	-5.206
C 4.035	-10.79	-5.312
C 4.759	-11.339	-6.537
O 5.227	-12.478	-6.535
C 2.545	-11.137	-5.381
C 1.996	-11.725	-4.091
C 2.023	-10.708	-2.961
C 1.839	-11.375	-1.608
N 3.039	-12.162	-1.207
H 3.429	-8.762	-5.26
H 4.458	-11.241	-4.427
H 1.989	-10.24	-5.607
H 2.389	-11.856	-6.172
H 0.977	-12.039	-4.255
H 2.598	-12.578	-3.812
H 2.975	-10.197	-2.971
H 1.227	-9.995	-3.113
H 1.656	-10.612	-0.866
H 0.986	-12.037	-1.659
H 3.897	-11.729	-1.604
H 2.96	-13.137	-1.559
H 3.121	-12.184	-0.17
N 4.847	-10.522	-7.581
H 4.455	-9.626	-7.522
C 4.096	-6.899	-6.912
O 4.798	-7.633	-7.606
N 4.339	-6.671	-5.626
C 5.469	-7.284	-4.937
C 5.418	-8.807	-5.036
O 6.447	-9.478	-4.958
C 5.505	-6.88	-3.45
C 5.424	-5.357	-3.309
C 6.766	-7.413	-2.785
H 3.2465503355704697	-6.405523489932886	-7.324510067114094
H 5.311204081632654	-10.802326530612245	-8.435857142857143
