41

C 5.516	-10.926	-8.813
C 7.023	-11.033	-8.602
O 7.608	-12.103	-8.767
C 5.215	-9.929	-9.933
C 3.73	-9.689	-10.15
C 3.479	-8.845	-11.389
C 2.224	-9.291	-12.124
N 1.073	-8.384	-11.858
H 5.135	-11.896	-9.093
H 5.678	-8.984	-9.691
H 5.637	-10.302	-10.854
H 3.236	-10.642	-10.27
H 3.327	-9.179	-9.288
H 3.361	-7.814	-11.091
H 4.326	-8.936	-12.053
H 2.427	-9.298	-13.184
H 1.968	-10.289	-11.799
H 0.991	-7.68	-12.619
H 1.209	-7.888	-10.955
H 0.19	-8.932	-11.811
N 7.645	-9.917	-8.237
C 9.079	-9.881	-8.003
C 9.476	-10.844	-6.889
O 8.577	-11.286	-6.143
C 9.509	-8.459	-7.644
C 8.694	-7.798	-6.53
C 9.434	-7.886	-5.203
C 8.392	-6.348	-6.877
O 10.681	-11.149	-6.773
H 7.127	-9.095	-8.121
H 9.573	-10.178	-8.916
H 10.54	-8.489	-7.339
H 9.43	-7.848	-8.529
H 7.755	-8.319	-6.42
H 10.499	-7.919	-5.386
H 9.13	-8.78	-4.68
H 9.2	-7.019	-4.602
H 7.944	-5.858	-6.024
H 7.707	-6.313	-7.712
H 9.308	-5.842	-7.143
H 5.029040816326531	-10.631931972789117	-7.9162380952380955
