48

C -9.185	-0.776	-1.065
O -9.816	0.208	-0.677
N -9.562	-1.511	-2.114
C -10.738	-1.171	-2.915
C -12.003	-1.135	-2.061
O -12.984	-0.49	-2.429
C -10.908	-2.156	-4.079
C -11.696	-3.408	-3.725
C -11.786	-4.385	-4.88
O -11.745	-3.99	-6.047
N -11.921	-5.662	-4.567
H -9.03	-2.303	-2.361
H -10.576	-0.183	-3.322
H -11.42	-1.654	-4.886
H -9.929	-2.459	-4.421
H -11.212	-3.9	-2.895
H -12.696	-3.119	-3.437
H -11.956	-5.909	-3.615
H -11.985	-6.314	-5.296
N -11.968	-1.82	-0.92
C -13.102	-1.851	-0.007
C -13.447	-0.443	0.456
O -14.611	-0.12	0.691
C -12.797	-2.748	1.181
H -11.156	-2.318	-0.688
H -13.948	-2.265	-0.537
H -13.648	-2.77	1.845
H -11.938	-2.361	1.711
H -12.584	-3.748	0.832
N -12.426	0.397	0.562
C -12.606	1.776	0.98
C -12.694	2.68	-0.242
O -12.072	2.408	-1.273
C -11.453	2.216	1.881
C -11.418	1.487	3.216
C -12.675	1.71	4.033
O -13.219	2.832	4.002
O -13.12	0.761	4.714
H -11.525	0.082	0.333
H -13.533	1.839	1.531
H -10.518	2.032	1.369
H -11.548	3.273	2.074
H -11.314	0.429	3.031
H -10.569	1.839	3.783
N -13.464	3.749	-0.128
H -13.931	3.915	0.72
H -8.310422818791947	-1.094281879194631	-0.5463959731543625
H -13.58265306122449	4.397775510204082	-0.8926530612244897
