53

H 6.756	-9.236	-2.945
H 5.349	-9.429	-1.898
C 1.611	-1.207	0.58
O 1.276	-1.445	1.739
N 2.015	-2.149	-0.251
C 2.131	-3.526	0.183
C 3.591	-3.891	0.392
O 4.375	-3.934	-0.555
C 1.496	-4.478	-0.833
C 1.629	-5.937	-0.452
C 1.018	-6.431	0.692
C 2.375	-6.818	-1.229
C 1.146	-7.757	1.053
C 2.505	-8.147	-0.875
C 1.889	-8.61	0.268
O 2.017	-9.93	0.629
H 2.239	-1.914	-1.181
H 1.612	-3.621	1.124
H 0.444	-4.25	-0.922
H 1.973	-4.34	-1.792
H 0.437	-5.762	1.308
H 2.857	-6.45	-2.123
H 0.663	-8.123	1.949
H 3.087	-8.816	-1.491
H 1.227	-10.208	1.114
N 3.956	-4.128	1.639
C 5.321	-4.509	1.963
C 5.491	-5.999	1.708
O 5.137	-6.828	2.545
C 5.653	-4.169	3.42
C 7.135	-4.303	3.724
O 7.597	-5.356	4.159
N 7.889	-3.239	3.49
H 3.289	-4.054	2.356
H 5.984	-3.964	1.308
H 5.354	-3.152	3.624
H 5.111	-4.838	4.069
H 7.45	-2.42	3.131
H 8.847	-3.299	3.678
N 6.026	-6.329	0.539
C 6.221	-7.716	0.127
C 6.63	-7.795	-1.366
C 8.075	-7.362	-1.564
C 6.403	-9.194	-1.924
H 6.301	-5.609	-0.072
H 5.274	-8.227	0.238
H 6.001	-7.112	-1.919
H 8.727	-8.014	-1.001
H 8.196	-6.346	-1.219
H 8.327	-7.419	-2.613
H 6.946	-9.913	-1.327
H 1.560744966442953	-0.21795302013422824	0.19680536912751678
H 6.970718120805369	-8.229456375838925	0.7488926174496645
