46

N 8.033	-7.664	1.753
C 9.063	-8.234	2.613
C 8.502	-8.595	3.986
O 9.247	-8.733	4.956
C 10.234	-7.257	2.751
C 11.274	-7.403	1.65
C 12.237	-8.543	1.946
C 12.968	-8.999	0.695
N 12.113	-9.858	-0.165
H 7.902	-6.692	1.738
H 9.417	-9.136	2.141
H 9.851	-6.247	2.724
H 10.719	-7.424	3.7
H 10.771	-7.604	0.715
H 11.832	-6.482	1.573
H 12.963	-8.208	2.67
H 11.68	-9.377	2.351
H 13.268	-8.128	0.133
H 13.844	-9.556	0.988
H 11.659	-10.601	0.405
H 12.687	-10.31	-0.903
H 11.375	-9.286	-0.624
N 7.187	-8.772	4.056
C 6.527	-9.121	5.306
C 5.069	-9.508	5.059
O 4.533	-10.403	5.711
C 6.598	-7.95	6.293
O 6.146	-8.333	7.58
H 6.649	-8.67	3.246
H 7.045	-9.968	5.729
H 7.62	-7.614	6.373
H 5.98	-7.141	5.934
H 6.904	-8.434	8.17
N 4.434	-8.835	4.111
C 3.045	-9.114	3.808
C 2.12	-8.129	4.488
O 0.98	-8.455	4.817
H 4.91	-8.137	3.61
H 2.9	-9.055	2.74
H 2.805	-10.112	4.143
N 2.622	-6.923	4.705
H 3.532	-6.726	4.407
C 7.265	-8.431	0.993
O 7.357	-9.658	0.989
H 6.5363020134228185	-7.931939597315436	0.3885436241610738
H 2.0891020408163268	-6.194428571428571	5.157408163265306
