62

N -4.821	6.718	2.043
C -5.679	7.716	1.426
C -4.944	9.05	1.357
O -3.722	9.099	1.532
C -6.956	7.871	2.256
C -6.677	8.237	3.708
C -7.953	8.46	4.497
N -7.684	9.106	5.78
C -8.626	9.506	6.633
N -9.911	9.332	6.349
N -8.281	10.085	7.774
H -4.392	6.936	2.899
H -5.931	7.389	0.43
H -7.567	8.647	1.82
H -7.499	6.94	2.239
H -6.12	7.434	4.169
H -6.089	9.14	3.731
H -8.617	9.084	3.917
H -8.423	7.506	4.676
H -6.741	9.255	6.016
H -10.202	8.877	5.444
H -10.643	9.649	7.021
H -7.273	10.235	8.005
H -9.016	10.395	8.445
N -5.685	10.117	1.094
C -5.1	11.44	1.031
C -4.153	11.627	-0.136
O -4.459	11.252	-1.269
H -6.646	10.005	0.937
H -5.893	12.167	0.952
H -4.558	11.618	1.948
N -2.994	12.198	0.15
H -2.802	12.441	1.077
C -4.515	0.936	2.394
C -4.5	2.413	2.783
O -5.11	2.806	3.78
H -4.326	0.831	1.334
N -3.796	3.225	2.009
C -3.663	4.641	2.321
C -4.589	5.532	1.502
O -5.066	5.163	0.426
C -2.211	5.071	2.129
C -1.293	4.594	3.239
C 0.126	4.371	2.745
C 1.031	3.936	3.883
N 2.362	3.482	3.402
H -3.362	2.868	1.207
H -3.916	4.764	3.361
H -1.85	4.672	1.193
H -2.17	6.149	2.092
H -1.274	5.339	4.02
H -1.677	3.665	3.634
H 0.119	3.601	1.987
H 0.502	5.294	2.327
H 1.169	4.772	4.552
H 0.556	3.127	4.417
H 2.253	2.783	2.638
H 2.897	3.048	4.186
H 2.905	4.293	3.04
H -3.800210884353741	0.40463945578231286	2.9777687074829933
H -5.4611052631578945	0.48265789473684206	2.657980263157895
H -2.29665306122449	12.381877551020407	-0.5577551020408164
