68

O 13.055	4.231	0.204
C 13.562	4.985	-2.7
C 13.402	5.605	-4.079
C 13.752	4.62	-5.188
C 12.716	3.511	-5.316
N 13.049	2.563	-6.413
H 12.102	6.769	-1.54
H 11.583	4.18	-2.688
H 14.142	5.661	-2.09
H 14.106	4.057	-2.808
H 12.377	5.916	-4.203
H 14.052	6.464	-4.153
H 13.804	5.153	-6.124
H 14.713	4.178	-4.972
H 12.671	2.969	-4.383
H 11.754	3.96	-5.517
H 12.299	1.844	-6.511
H 13.95	2.084	-6.214
H 13.135	3.076	-7.315
N 11.976	2.574	-0.87
C 12.133	1.606	0.205
C 12.094	0.194	-0.364
O 11.102	-0.216	-0.971
C 11.044	1.776	1.266
C 11.337	1.045	2.56
C 12.389	1.44	3.376
C 10.561	-0.034	2.964
C 12.66	0.778	4.56
C 10.826	-0.701	4.145
C 11.875	-0.291	4.939
O 12.138	-0.951	6.12
H 11.499	2.302	-1.685
H 13.099	1.772	0.66
H 10.936	2.826	1.498
H 10.11	1.403	0.875
H 13.002	2.276	3.076
H 9.741	-0.354	2.338
H 13.482	1.099	5.183
H 10.211	-1.538	4.442
H 12.786	-0.453	6.633
N 13.179	-0.541	-0.175
C 13.275	-1.906	-0.676
C 12.317	-2.826	0.069
O 12.531	-3.159	1.234
C 14.712	-2.416	-0.55
C 15.751	-1.618	-1.342
C 17.141	-2.193	-1.13
C 15.4	-1.603	-2.821
H 13.934	-0.162	0.323
H 12.998	-1.893	-1.72
H 14.988	-2.393	0.494
H 14.74	-3.44	-0.89
H 15.756	-0.597	-0.989
H 17.405	-2.117	-0.084
H 17.854	-1.64	-1.723
H 17.15	-3.232	-1.429
H 15.289	-2.616	-3.178
H 16.187	-1.113	-3.371
H 14.474	-1.068	-2.967
N 11.254	-3.222	-0.61
H 11.131	-2.912	-1.529
C 10.265	5.992	-1.402
O 9.548	4.994	-1.472
N 11.567	5.949	-1.633
C 12.23	4.701	-1.999
C 12.458	3.809	-0.785
H 9.841322147651006	6.940563758389262	-1.1667785234899328
H 10.571918367346939	-3.828448979591837	-0.19228571428571428
