45

C 3.05	-3.786	-11.217
O 3.852	-3.479	-12.1
N 2.816	-3.022	-10.159
C 3.531	-1.767	-9.947
C 4.958	-2.025	-9.47
O 5.911	-1.855	-10.231
C 2.788	-0.885	-8.941
C 1.944	0.18	-9.572
N 2.246	1.523	-9.497
C 0.801	0.098	-10.296
C 1.326	2.218	-10.139
N 0.44	1.378	-10.634
H 2.137	-3.306	-9.507
H 3.575	-1.252	-10.896
H 2.142	-1.506	-8.339
H 3.511	-0.402	-8.3
H 3.023	1.91	-9.036
H 0.267	-0.808	-10.55
H 1.301	3.293	-10.239
H -0.274	1.618	-11.267
N 5.093	-2.453	-8.217
C 6.401	-2.734	-7.631
C 7.281	-1.475	-7.652
O 6.847	-0.412	-7.201
C 7.099	-3.905	-8.365
O 6.119	-4.86	-8.799
C 8.103	-4.603	-7.459
H 4.294	-2.581	-7.672
H 6.242	-3.027	-6.604
H 7.619	-3.513	-9.227
H 6.257	-5.053	-9.735
H 8.62	-5.368	-8.017
H 7.583	-5.054	-6.627
H 8.817	-3.881	-7.09
N 8.509	-1.589	-8.155
C 9.4	-0.442	-8.221
C 10.099	-0.159	-6.902
O 10.965	0.718	-6.828
H 8.816	-2.458	-8.492
H 10.148	-0.624	-8.979
H 8.823	0.426	-8.503
N 9.714	-0.903	-5.864
H 9.019	-1.571	-6.004
H 2.4748590604026846	-4.679422818791946	-11.285402684563758
H 10.110204081632654	-0.7947551020408163	-4.934204081632653
