48

C -6.922	1.434	-6.231
C -7.369	0.459	-7.329
O -7.999	-0.555	-7.039
C -8.038	2.45	-5.971
C -9.262	1.843	-5.3
C -10.411	2.835	-5.208
N -11.492	2.342	-4.358
C -12.788	2.43	-4.663
N -13.177	3.035	-5.779
N -13.693	1.916	-3.84
H -5.651	3.105	-6.544
H -6.749	0.874	-5.326
H -7.657	3.234	-5.335
H -8.347	2.879	-6.913
H -9.586	0.986	-5.871
H -8.992	1.528	-4.302
H -10.039	3.762	-4.797
H -10.797	3.011	-6.2
H -11.234	1.907	-3.513
H -12.473	3.446	-6.43
H -14.192	3.106	-6.013
H -13.39	1.444	-2.956
H -14.707	1.967	-4.077
N -7.042	0.755	-8.58
H -6.523	1.565	-8.766
C 2.066	0.875	-5.058
O 2.719	0.976	-6.1
N 0.75	0.707	-5.037
C -0.027	0.664	-6.258
C -1.227	1.586	-6.18
O -1.338	2.381	-5.245
H 0.296	0.611	-4.169
H 0.597	0.967	-7.084
H -0.368	-0.348	-6.423
N -2.13	1.475	-7.141
C -3.324	2.306	-7.173
C -4.563	1.463	-6.881
O -4.516	0.239	-6.97
C -3.447	2.998	-8.533
O -3.31	2.069	-9.599
H -2.001	0.793	-7.844
H -3.228	3.055	-6.403
H -4.414	3.472	-8.606
H -2.672	3.744	-8.626
H -2.78	1.308	-9.304
N -5.671	2.125	-6.561
H -7.323714285714286	0.1554897959183673	-9.34395918367347
H 2.539234899328859	0.9036174496644296	-4.102456375838926
