56

H 6.234	9.208	3.311
H 5.052	10.241	4.101
H 6.511	7.955	5.416
H 6.942	9.658	5.563
H 4.197	8.687	6.286
H 5.532	8.566	7.43
H 5.895	10.999	7.216
H 4.508	11.089	6.131
H 3.961	11.695	8.431
H 4.391	10.144	8.943
H 3.077	10.354	7.902
N 1.942	8.123	3.749
C 0.584	8.63	3.845
C -0.163	7.929	4.967
O 0.27	6.879	5.445
C -0.144	8.444	2.522
H 2.085	7.16	3.636
H 0.634	9.688	4.061
H -1.093	8.962	2.559
H -0.315	7.393	2.351
H 0.456	8.849	1.72
N -1.276	8.51	5.383
H -1.568	9.347	4.964
C 7.386	2.501	-2.709
O 6.377	1.822	-2.929
N 7.545	3.218	-1.61
C 6.508	3.286	-0.605
C 5.83	4.635	-0.606
O 6.025	5.427	-1.529
H 8.379	3.723	-1.482
H 5.773	2.519	-0.802
H 6.946	3.112	0.367
N 5.041	4.908	0.419
C 4.343	6.181	0.52
C 4.098	6.563	1.975
O 3.516	5.793	2.738
C 3.012	6.117	-0.231
O 3.219	5.981	-1.624
H 4.927	4.242	1.126
H 4.966	6.938	0.066
H 2.446	5.269	0.121
H 2.454	7.024	-0.049
H 4.162	5.839	-1.793
N 4.541	7.754	2.349
C 4.357	8.254	3.706
C 2.991	8.925	3.831
O 2.89	10.142	3.979
C 5.47	9.246	4.073
C 6.127	8.964	5.42
C 5.146	9.107	6.579
C 4.937	10.563	6.97
N 4.029	10.698	8.142
H 5.007	8.319	1.69
H 4.395	7.413	4.38
H 8.204040268456376	2.51286577181208	-3.3951208053691277
H -1.8311020408163265	8.111020408163265	6.124061224489796
