52

C -2.076	7.935	6.451
C -2.932	6.786	5.935
O -3.558	6.882	4.874
C -2.974	8.999	7.083
C -3.824	8.471	8.23
C -4.947	9.417	8.604
O -5.473	10.145	7.76
N -5.33	9.411	9.867
H -1.402	7.554	7.201
H -2.354	9.798	7.461
H -3.635	9.392	6.327
H -4.252	7.525	7.939
H -3.19	8.328	9.094
H -4.877	8.801	10.487
H -6.053	10.019	10.139
N -2.933	5.701	6.687
C -3.71	4.53	6.352
C -5.174	4.743	6.725
O -5.472	5.412	7.713
C -3.166	3.301	7.1
O -1.894	3.616	7.681
C -3.016	2.113	6.165
H -2.384	5.68	7.497
H -3.627	4.355	5.29
H -3.859	3.039	7.885
H -1.893	3.342	8.606
H -3.972	1.89	5.715
H -2.67	1.256	6.722
H -2.301	2.352	5.391
N -6.079	4.196	5.926
C -7.506	4.327	6.195
C -7.895	3.44	7.37
O -8.742	3.794	8.189
C -8.358	3.941	4.967
C -7.829	4.635	3.714
C -9.822	4.306	5.196
C -8.262	3.975	2.424
H -5.781	3.691	5.134
H -7.709	5.358	6.446
H -8.297	2.872	4.834
H -8.186	5.653	3.698
H -6.749	4.638	3.741
H -10.391	4.09	4.303
H -9.898	5.358	5.426
H -10.211	3.728	6.022
H -7.879	2.966	2.389
H -7.876	4.536	1.586
H -9.34	3.952	2.376
N -7.253	2.287	7.442
H -6.58	2.072	6.767
H -1.493687074829932	8.353537414965986	5.673612244897959
H -7.4361836734693885	1.6389183673469387	8.183061224489796
