63

C -5.174	4.743	6.725
O -5.472	5.412	7.713
N -6.079	4.196	5.926
C -7.506	4.327	6.195
C -7.895	3.44	7.37
O -8.742	3.794	8.189
C -8.358	3.941	4.967
C -7.829	4.635	3.714
C -9.822	4.306	5.196
C -8.262	3.975	2.424
H -5.781	3.691	5.134
H -7.709	5.358	6.446
H -8.297	2.872	4.834
H -8.186	5.653	3.698
H -6.749	4.638	3.741
H -10.391	4.09	4.303
H -9.898	5.358	5.426
H -10.211	3.728	6.022
H -7.879	2.966	2.389
H -7.876	4.536	1.586
H -9.34	3.952	2.376
N -7.253	2.287	7.442
C -7.517	1.353	8.51
C -6.242	0.913	9.189
O -5.241	1.636	9.175
H -6.58	2.072	6.767
H -8.162	1.823	9.238
H -8.016	0.486	8.104
N -6.268	-0.27	9.776
C -5.104	-0.803	10.457
C -4.25	-1.608	9.492
O -4.708	-1.998	8.415
C -5.53	-1.679	11.63
C -6.358	-0.938	12.66
C -6.84	-1.844	13.764
O -6.05	-2.138	14.685
O -8.008	-2.276	13.717
H -7.092	-0.803	9.745
H -4.524	0.029	10.829
H -6.115	-2.504	11.254
H -4.649	-2.064	12.119
H -5.756	-0.153	13.092
H -7.215	-0.503	12.17
N -3.009	-1.853	9.877
C -2.096	-2.621	9.048
C -2.439	-4.1	9.143
O -2.135	-4.756	10.14
C -0.626	-2.405	9.46
C 0.31	-3.025	8.434
C -0.33	-0.924	9.629
H -2.701	-1.518	10.748
H -2.219	-2.293	8.025
H -0.463	-2.896	10.409
H 0.151	-4.092	8.398
H 1.334	-2.823	8.713
H 0.113	-2.597	7.462
H -0.431	-0.425	8.677
H 0.678	-0.798	9.997
H -1.026	-0.494	10.334
N -3.094	-4.612	8.115
H -3.31	-4.037	7.35
H -4.152147651006711	4.594328859060403	6.464651006711409
H -3.3708571428571426	-5.58065306122449	8.09765306122449
