58

H -9.39	-4.326	10.099
H -7.776	-4.78	10.309
H -8.916	-5.927	9.824
C -7.517	1.353	8.51
C -6.242	0.913	9.189
O -5.241	1.636	9.175
H -8.162	1.823	9.238
H -8.016	0.486	8.104
N -6.268	-0.27	9.776
C -5.104	-0.803	10.457
C -4.25	-1.608	9.492
O -4.708	-1.998	8.415
C -5.53	-1.679	11.63
C -6.358	-0.938	12.66
C -6.84	-1.844	13.764
O -6.05	-2.138	14.685
O -8.008	-2.276	13.717
H -7.092	-0.803	9.745
H -4.524	0.029	10.829
H -6.115	-2.504	11.254
H -4.649	-2.064	12.119
H -5.756	-0.153	13.092
H -7.215	-0.503	12.17
N -3.009	-1.853	9.877
C -2.096	-2.621	9.048
C -2.439	-4.1	9.143
O -2.135	-4.756	10.14
C -0.626	-2.405	9.46
C 0.31	-3.025	8.434
C -0.33	-0.924	9.629
H -2.701	-1.518	10.748
H -2.219	-2.293	8.025
H -0.463	-2.896	10.409
H 0.151	-4.092	8.398
H 1.334	-2.823	8.713
H 0.113	-2.597	7.462
H -0.431	-0.425	8.677
H 0.678	-0.798	9.997
H -1.026	-0.494	10.334
N -3.094	-4.612	8.115
C -3.493	-6.008	8.09
C -4.903	-6.146	7.509
C -5.954	-5.364	8.28
C -7.337	-5.547	7.68
C -8.353	-4.604	8.307
N -8.626	-4.933	9.733
H -3.31	-4.037	7.35
H -3.496	-6.371	9.108
H -4.897	-5.791	6.489
H -5.184	-7.188	7.517
H -5.969	-5.709	9.303
H -5.696	-4.314	8.256
H -7.286	-5.354	6.618
H -7.656	-6.566	7.844
H -7.971	-3.596	8.249
H -9.275	-4.669	7.75
H -7.324836734693878	2.0328503401360543	7.732612244897959
H -2.784214765100671	-6.6011677852348996	7.508322147651007
