40

N -2.6	-8.146	7.424
C -1.724	-9.057	6.711
C -2.37	-9.494	5.408
O -3.525	-9.917	5.39
C -1.406	-10.276	7.575
C -0.519	-9.964	8.771
C 0.929	-9.762	8.353
N 1.763	-9.299	9.46
C 3.065	-9.047	9.351
N 3.693	-9.247	8.2
N 3.743	-8.607	10.4
H -3.293	-8.515	8.015
H -0.806	-8.532	6.488
H -2.332	-10.697	7.938
H -0.904	-11.012	6.963
H -0.874	-9.059	9.241
H -0.572	-10.781	9.473
H 1.322	-10.701	7.993
H 0.966	-9.029	7.559
H 1.324	-9.162	10.333
H 3.173	-9.61	7.374
H 4.718	-9.042	8.115
H 3.257	-8.46	11.315
H 4.766	-8.41	10.322
N -1.631	-9.373	4.319
C -2.132	-9.759	3.012
C -1.224	-10.805	2.382
O -0.001	-10.642	2.353
C -2.259	-8.541	2.108
H -0.714	-9.019	4.396
H -3.118	-10.185	3.145
H -3.038	-7.894	2.482
H -2.506	-8.86	1.105
H -1.323	-8.006	2.094
N -1.827	-11.878	1.897
H -2.803	-11.954	1.971
C -2.506	-6.834	7.28
O -1.679	-6.291	6.544
H -3.194912751677852	-6.257463087248322	7.845369127516778
H -1.3197755102040816	-12.636408163265306	1.4640204081632653
