67

H -5.736	-5.541	-5.317
H -7.008	-3.539	-5.986
H -5.499	-2.621	-6.014
H -6.174	-5.015	-7.725
H -6.104	-3.339	-8.258
H -3.704	-3.393	-7.805
H -5.397	-6.476	-8.073
H -3.905	-7.377	-8.528
H -1.803	-4.505	-8.337
H -1.884	-6.28	-8.654
C -1.898	-7.634	-4.057
O -2.529	-6.647	-3.678
C -2.343	-4.938	3.305
S -3.41	-4.137	2.061
H -2.102	-5.926	2.943
H -2.91	-5.025	4.22
N -2.448	-8.63	-4.741
C -3.852	-8.623	-5.123
C -4.752	-8.515	-3.896
O -5.773	-7.827	-3.922
C -4.171	-9.896	-5.903
O -3.13	-10.851	-5.751
H -1.892	-9.393	-5.006
H -4.018	-7.767	-5.76
H -5.091	-10.324	-5.533
H -4.278	-9.659	-6.951
H -2.499	-10.751	-6.478
N -4.355	-9.184	-2.816
C -5.112	-9.155	-1.572
C -5.154	-7.742	-1.008
O -6.181	-7.297	-0.499
C -4.5	-10.109	-0.541
C -5.098	-11.502	-0.563
C -4.937	-12.182	-1.903
O -3.786	-12.465	-2.296
O -5.96	-12.426	-2.574
H -3.532	-9.717	-2.862
H -6.122	-9.472	-1.792
H -3.441	-10.195	-0.732
H -4.646	-9.694	0.445
H -4.607	-12.102	0.19
H -6.15	-11.429	-0.336
N -4.032	-7.038	-1.115
C -3.94	-5.672	-0.621
C -4.824	-4.753	-1.458
O -5.513	-3.883	-0.926
C -2.49	-5.181	-0.641
S -2.165	-3.789	0.493
H -3.249	-7.448	-1.539
H -4.301	-5.664	0.397
H -1.838	-5.995	-0.358
H -2.24	-4.858	-1.642
N -4.817	-4.968	-2.771
C -5.633	-4.172	-3.679
C -5.34	-4.553	-5.131
C -5.941	-3.599	-6.149
C -5.687	-4.065	-7.576
N -4.26	-4.212	-7.855
C -3.666	-5.362	-8.177
N -4.371	-6.485	-8.259
N -2.36	-5.386	-8.405
H -4.243	-5.679	-3.14
H -5.385	-3.132	-3.527
H -4.269	-4.572	-5.275
H -0.864979865771812	-7.745677852348993	-3.8266644295302013
H -6.69438255033557	-4.324959731543624	-3.4556644295302013
H -1.4271644736842104	-4.408631578947368	3.5077368421052633
