26

C         1.4693039551   -1.1022692076    0.4508940167
C         2.8542852452   -1.1144085663    0.4524330493
C         3.5761928356   -0.0145116166   -0.0078314019
C         2.8634773713    1.0906121421   -0.4704363225
C         1.4786184483    1.0895707720   -0.4706709249
C         0.7452240707   -0.0032639613   -0.0096290011
C        -1.4693039551    1.1022692076    0.4508940167
C        -0.7452240707    0.0032639613   -0.0096290011
C        -1.4786184483   -1.0895707720   -0.4706709249
C        -2.8634773713   -1.0906121421   -0.4704363225
C        -3.5761928356    0.0145116166   -0.0078314019
C        -2.8542852452    1.1144085663    0.4524330493
N        -4.9732899240    0.0407053838   -0.0580730302
N         4.9732899240   -0.0407053838   -0.0580730302
H         0.9415361298   -1.9649084216    0.8360898501
H         3.3817076962   -1.9861488013    0.8197054623
H         3.3984762224    1.9531226647   -0.8482801929
H         0.9580411671    1.9564254307   -0.8560988390
H        -0.9415361298    1.9649084216    0.8360898501
H        -0.9580411671   -1.9564254307   -0.8560988390
H        -3.3984762224   -1.9531226647   -0.8482801929
H        -3.3817076962    1.9861488013    0.8197054623
H        -5.3907860910   -0.8676241678    0.0033700326
H        -5.3844166101    0.6503516424    0.6219349382
H         5.3844166101   -0.6503516424    0.6219349382
H         5.3907860910    0.8676241678    0.0033700326
