11

C -7.4904817605	0.1568784438	1.1285459652
C -6.9426113765	-0.0753693194	-0.2785906266
C -7.4337449571	-1.413001127	-0.8490967439
H -8.5822525761	0.1253179016	1.1168275145
H -7.1450617032	-0.6127008365	1.823750436
H -7.189623669	1.1297540737	1.5215943678
H -7.3460641945	0.7156185555	-0.9237706192
H -7.074988362	-2.248794759	-0.2423173881
H -7.0761620265	-1.5643887345	-1.8704479626
H -8.5256077592	-1.4510397756	-0.8685603454
H -5.861644097250336	-0.010326230493959726	-0.35959578082349
