18

C 1.9555418599	-3.1114498043	0.1990439244
C 0.6317380192	-2.9337243217	0.2710068599
C -0.0984556874	-1.6619803217	0.2182575087
C -1.4221776279	-1.6535310017	0.0686142275
C 2.9629828266	-2.0843792997	-0.0742557351
C 4.2772676161	-2.2931290219	0.0561685566
C 5.3895167293	-1.3800242938	-0.2589058469
C 5.4357959314	-0.0424257246	-0.274983931
H 2.3328330949	-4.1196922336	0.3274287108
H 0.0209822914	-3.8188737451	0.4104183428
H 0.4626224226	-0.752142746	0.3483853721
H -1.9497543412	-2.5841153977	-0.0609659221
H 2.6067476099	-1.1378117697	-0.453977334
H 4.5946577046	-3.2777642487	0.3872663842
H 6.3099170193	-1.8931231217	-0.51684051
H 6.3666080005	0.4183874063	-0.5873633119
H -2.067285639716667	-0.8676413093055554	0.06653157846111112
H 4.664160591350686	0.6082530949397261	-0.023263431263013667
