38

C 3.6398666863	-1.9474548065	0.5968491408
C 3.6554794001	-0.9047906433	-0.3499512542
C 2.5463356206	-0.106570542	-0.524360123
C 1.4083457707	-0.3565595434	0.2466533599
C 1.3933792237	-1.3678224791	1.1783471228
C 2.5169017926	-2.1753867905	1.3600300124
C 0.0777355691	-1.4202432587	1.9124653566
C -0.8539783982	-0.4707465818	1.1191284667
C 0.1007585739	0.4396261079	0.2453975719
N -1.8032991751	-1.1856988535	0.2795226906
C -1.2729332863	-1.75839187	-0.9457885817
C -3.1267298505	-1.1076593728	0.5776307685
O -3.886607762	-1.6965724739	-0.337873183
C -5.2929166464	-1.6951867779	-0.1012699539
C -5.947582988	-2.412398188	-1.2590388109
O 4.8286510551	-0.7959347523	-1.0246347675
C 5.0034580068	0.2481420017	-1.9452494687
O 4.7269843879	-2.7233215399	0.7569125794
O -3.5719865205	-0.5815006214	1.5547327056
H 5.4041070489	-2.4213336722	0.1664501525
H -2.0246315481	-2.381821373	-1.4116571653
H -0.4342974831	-2.4014227685	-0.6826628625
H -1.442613795	0.1440290642	1.7860002084
H 0.1956062109	-1.0679697739	2.9403249582
H -0.3456014457	-2.423685588	1.9684022652
H 2.5490453534	0.7021201722	-1.2396917996
H 2.5349891387	-2.9787198818	2.0835167308
H 4.2962191041	0.1683312701	-2.7731683155
H 6.0150100851	0.1506430467	-2.3298865029
H 4.8926590823	1.2217109857	-1.4642447248
H -5.6374701935	-0.6661803535	-0.018019458
H -5.4937514515	-2.19220767	0.8460838157
H -5.7339343881	-1.9054445626	-2.2014764819
H -7.029631836	-2.4314165343	-1.1154822
H -5.5912884428	-3.4413372172	-1.3313404832
H -0.30357856941812084	0.568008002638255	-0.7559925542288591
H 0.2689852540221477	1.3805431098087249	0.7551113973208055
H -0.9497312171486842	-0.9754103268105262	-1.6187202760835526
