362

C   49.342   -16.63   -4.235
O   48.729   -16.309   -5.246
N   49.2   -16.0   -3.079
C   48.256   -14.899   -2.903
C   48.711   -13.552   -3.486
O   47.89   -12.662   -3.74
C   47.957   -14.695   -1.422
O   49.17   -14.397   -0.713
C   47.32   -15.963   -0.835
H   49.812   -16.352   -2.312
H   47.377   -15.154   -3.358
H   47.326   -13.897   -1.313
H   46.325   -15.909   -0.927
H   47.658   -16.765   -1.329
H   47.562   -16.04   0.132
H   49.539   -13.512   -1.012
N   50.022   -13.387   -3.691
C   50.533   -12.119   -4.185
C   50.056   -11.025   -3.249
O   50.052   -11.197   -2.02
H   50.606   -14.206   -3.475
H   51.529   -12.138   -4.197
H   50.184   -11.949   -5.102
N   49.811   -9.853   -3.81
C   49.236   -8.723   -3.07
C   48.256   -8.102   -4.066
O   48.607   -7.165   -4.786
C   50.261   -7.684   -2.661
C   49.68   -6.579   -1.843
H   50.059   -9.793   -4.824
H   48.728   -9.071   -2.31
H   50.986   -8.126   -2.123
H   50.673   -7.282   -3.485
N   49.952   -6.411   -0.51
C   48.802   -5.588   -2.169
C   49.285   -5.367   -0.038
N   48.581   -4.86   -1.036
H   50.567   -6.991   0.033
H   48.402   -5.433   -3.067
H   49.309   -5.03   0.892
N   47.024   -8.642   -4.145
C   45.955   -8.178   -5.061
C   45.904   -6.653   -5.246
O   45.964   -5.889   -4.282
C   44.687   -8.739   -4.408
C   45.164   -10.059   -3.849
C   46.505   -9.654   -3.196
H   46.042   -8.642   -5.963
H   44.369   -8.144   -3.68
H   43.972   -8.88   -5.081
H   44.542   -10.398   -3.167
H   45.319   -10.711   -4.569
H   46.351   -9.257   -2.302
H   47.114   -10.434   -3.139
N   45.858   -6.223   -6.498
C   45.846   -4.804   -6.785
C   47.221   -4.302   -7.172
O   47.35   -3.333   -7.918
H   45.833   -6.961   -7.219
H   45.198   -4.617   -7.539
H   45.522   -4.297   -5.972
N   48.261   -4.959   -6.666
C   49.64   -4.566   -6.977
C   50.474   -5.715   -7.562
O   50.997   -5.611   -8.676
C   50.362   -4.018   -5.725
C   49.461   -3.029   -4.972
C   51.615   -3.282   -6.139
C   50.049   -2.545   -3.658
H   48.021   -5.754   -6.048
H   49.576   -3.863   -7.7
H   50.55   -4.784   -5.121
H   49.295   -2.242   -5.562
H   48.591   -3.481   -4.785
H   52.088   -2.935   -5.329
H   52.225   -3.902   -6.634
H   51.376   -2.514   -6.733
H   50.916   -2.084   -3.836
H   49.412   -1.909   -3.227
H   50.201   -3.328   -3.058
N   50.529   -6.828   -6.843
C   51.31   -7.967   -7.29
C   50.472   -9.221   -7.54
O   49.867   -9.781   -6.637
C   52.471   -8.278   -6.272
C   53.437   -7.081   -6.201
C   53.25   -9.555   -6.66
C   53.713   -6.61   -4.783
H   49.983   -6.811   -5.964
H   51.709   -7.708   -8.186
H   52.057   -8.398   -5.384
H   54.296   -7.346   -6.628
H   53.035   -6.328   -6.716
H   53.947   -9.728   -5.972
H   52.615   -10.319   -6.702
H   53.675   -9.415   -7.548
H   54.12   -7.358   -4.262
H   54.343   -5.836   -4.811
H   52.855   -6.331   -4.357
N   50.465   -9.682   -8.785
C   49.747   -10.866   -9.249
C   50.205   -12.115   -8.509
O   51.299   -12.14   -7.95
C   50.17   -10.948   -10.721
C   50.427   -9.52   -11.073
C   51.162   -9.018   -9.89
H   48.75   -10.74   -9.155
H   50.996   -11.497   -10.819
H   49.438   -11.33   -11.277
H   50.979   -9.46   -11.902
H   49.565   -9.035   -11.205
H   52.125   -9.285   -9.906
H   51.094   -8.023   -9.799
N   49.352   -13.142   -8.457
C   49.693   -14.4   -7.786
C   50.806   -15.092   -8.593
O   50.921   -14.897   -9.802
C   48.372   -15.176   -7.867
C   47.343   -14.09   -7.853
C   47.927   -13.113   -8.831
H   49.984   -14.243   -6.85
H   48.325   -15.703   -8.711
H   48.268   -15.778   -7.081
H   46.469   -14.432   -8.166
H   47.268   -13.692   -6.95
H   47.806   -13.415   -9.769
H   47.551   -12.201   -8.708
N   51.653   -15.852   -7.908
C   52.743   -16.583   -8.551
C   53.635   -15.704   -9.428
O   54.088   -16.127   -10.498
C   52.163   -17.729   -9.383
C   51.315   -18.664   -8.593
H   51.476   -15.883   -6.881
H   53.323   -16.993   -7.824
H   51.606   -17.342   -10.126
H   52.921   -18.25   -9.789
N   51.828   -19.537   -7.661
C   49.967   -18.837   -8.564
C   50.853   -20.204   -7.091
N   49.705   -19.8   -7.621
H   52.806   -19.642   -7.452
H   49.298   -18.357   -9.122
H   50.948   -20.898   -6.382
N   53.918   -14.49   -8.96
C   54.74   -13.56   -9.709
C   56.222   -13.629   -9.354
O   56.587   -13.747   -8.194
C   54.224   -12.138   -9.526
H   53.505   -14.277   -8.031
H   54.641   -13.762   -10.703
H   53.363   -12.029   -10.022
H   54.073   -11.961   -8.554
H   54.897   -11.491   -9.882
N   57.045   -13.648   -10.397
C   58.499   -13.661   -10.299
C   58.842   -12.184   -10.398
O   58.506   -11.548   -11.396
C   59.075   -14.391   -11.527
O   58.816   -15.787   -11.395
C   60.59   -14.133   -11.702
H   56.543   -13.653   -11.329
H   58.755   -13.983   -9.415
H   58.599   -14.053   -12.361
H   61.07   -15.008   -11.731
H   60.741   -13.636   -12.554
H   60.921   -13.591   -10.931
H   59.029   -16.099   -10.462
N   59.465   -11.617   -9.372
C   59.81   -10.189   -9.427
C   61.284   -9.922   -9.774
O   62.166   -10.717   -9.44
C   59.489   -9.521   -8.096
C   58.083   -9.832   -7.59
C   57.901   -9.228   -6.195
C   57.064   -9.308   -8.626
H   59.675   -12.227   -8.578
H   59.235   -9.75   -10.139
H   60.127   -9.854   -7.423
H   59.553   -8.547   -8.217
H   57.963   -10.817   -7.538
H   58.029   -8.239   -6.245
H   56.981   -9.432   -5.865
H   58.576   -9.623   -5.574
H   57.226   -9.764   -9.498
H   56.142   -9.508   -8.302
H   57.184   -8.324   -8.728
N   61.526   -8.792   -10.431
C   62.864   -8.383   -10.818
C   63.13   -7.041   -10.187
O   62.388   -6.083   -10.411
C   63.016   -8.212   -12.337
C   64.433   -7.727   -12.663
C   62.74   -9.526   -13.04
H   60.671   -8.227   -10.643
H   63.513   -9.041   -10.444
H   62.395   -7.496   -12.629
H   64.41   -6.746   -12.848
H   65.03   -7.909   -11.884
H   64.77   -8.214   -13.467
H   62.026   -10.025   -12.546
H   62.435   -9.345   -13.976
H   63.577   -10.075   -13.061
N   64.196   -6.979   -9.398
C   64.569   -5.747   -8.718
C   65.939   -5.239   -9.191
O   66.852   -6.021   -9.464
C   64.6   -5.97   -7.194
C   63.234   -6.114   -6.561
C   62.629   -7.363   -6.449
C   62.56   -4.998   -6.071
C   61.356   -7.505   -5.847
C   61.294   -5.125   -5.473
C   60.697   -6.384   -5.361
H   64.728   -7.866   -9.311
H   63.898   -5.045   -8.984
H   65.104   -6.802   -7.022
H   65.044   -5.188   -6.785
H   63.086   -8.175   -6.791
H   62.976   -4.094   -6.142
H   60.949   -8.416   -5.782
H   60.823   -4.302   -5.129
H   59.801   -6.476   -4.933
N   66.033   -3.932   -9.364
C   67.275   -3.277   -9.735
C   67.629   -2.598   -8.406
O   67.055   -1.569   -8.038
C   66.999   -2.25   -10.829
C   68.252   -1.563   -11.324
O   69.144   -1.277   -10.507
O   68.336   -1.283   -12.533
H   65.137   -3.41   -9.211
H   67.941   -3.966   -9.882
H   66.569   -2.722   -11.593
H   66.382   -1.563   -10.458
N   68.524   -3.225   -7.657
C   68.948   -2.756   -6.345
C   70.396   -2.269   -6.285
O   71.303   -2.98   -6.721
C   68.864   -3.917   -5.352
C   69.351   -3.495   -3.965
C   67.465   -4.476   -5.328
H   68.908   -4.102   -8.095
H   68.349   -1.973   -6.081
H   69.481   -4.637   -5.665
H   70.2   -2.977   -4.057
H   68.655   -2.926   -3.53
H   69.513   -4.309   -3.41
H   66.986   -4.224   -6.172
H   67.502   -5.475   -5.254
H   66.966   -4.105   -4.542
N   70.606   -1.111   -5.67
C   71.942   -0.568   -5.482
C   72.151   -0.423   -3.977
O   71.334   0.217   -3.295
C   72.069   0.794   -6.151
C   73.479   1.359   -6.162
C   73.518   2.796   -6.66
O   74.121   3.63   -5.973
O   72.933   3.104   -7.72
H   69.741   -0.633   -5.339
H   72.619   -1.188   -5.853
H   71.78   0.698   -7.089
H   71.498   1.429   -5.657
H   73.821   1.356   -5.244
H   74.025   0.821   -6.773
N   73.19   -1.068   -3.445
C   73.519   -1.004   -2.011
C   74.409   0.217   -1.75
O   75.593   0.194   -2.046
C   74.217   -2.297   -1.557
C   74.58   -2.426   -0.066
C   73.344   -2.223   0.817
C   75.199   -3.802   0.217
H   73.751   -1.622   -4.128
H   72.672   -0.894   -1.496
H   73.613   -3.063   -1.78
H   75.067   -2.382   -2.076
H   75.264   -1.735   0.161
H   72.66   -2.914   0.59
H   73.607   -2.312   1.776
H   72.969   -1.312   0.653
H   76.026   -3.909   -0.332
H   75.427   -3.866   1.187
H   74.541   -4.513   -0.023
N   73.839   1.261   -1.156
C   74.547   2.517   -0.908
C   75.515   2.6   0.268
O   76.484   3.351   0.227
C   73.537   3.654   -0.748
C   72.62   3.991   -1.916
C   71.698   5.137   -1.511
C   73.471   4.378   -3.105
H   72.842   1.109   -0.881
H   75.076   2.755   -1.771
H   72.947   3.427   0.039
H   74.054   4.489   -0.522
H   72.072   3.194   -2.145
H   72.247   5.937   -1.272
H   71.093   5.363   -2.274
H   71.15   4.86   -0.722
H   74.071   3.615   -3.356
H   72.883   4.603   -3.884
H   74.032   5.176   -2.875
N   75.197   1.901   1.347
C   76.0   1.94   2.553
C   75.358   1.02   3.58
O   74.301   0.438   3.336
C   76.019   3.366   3.103
C   74.633   3.901   3.395
C   74.618   5.337   3.849
C   74.998   5.458   5.311
N   74.895   6.873   5.759
H   74.33   1.328   1.253
H   76.917   1.604   2.35
H   76.543   3.367   3.947
H   76.45   3.954   2.427
H   74.068   3.816   2.558
H   74.206   3.326   4.11
H   75.273   5.858   3.308
H   73.702   5.71   3.729
H   74.381   4.895   5.857
H   75.938   5.143   5.432
H   74.895   6.906   6.758
H   75.675   7.39   5.408
H   74.046   7.27   5.411
N   75.994   0.896   4.733
C   75.489   0.067   5.804
C   75.532   0.951   7.037
O   76.37   1.863   7.119
C   76.372   -1.176   6.018
C   76.487   -2.226   4.916
C   77.299   -3.397   5.405
C   75.114   -2.715   4.473
H   76.882   1.443   4.799
H   74.55   -0.168   5.618
H   77.309   -0.847   6.216
H   76.031   -1.646   6.846
H   76.932   -1.813   4.123
H   76.856   -3.81   6.205
H   77.375   -4.087   4.681
H   78.219   -3.092   5.662
H   74.582   -1.943   4.123
H   75.22   -3.4   3.752
H   74.637   -3.123   5.252
N   74.597   0.728   7.954
C   74.527   1.483   9.2
C   74.315   0.512   10.366
O   74.076   -0.692   10.108
C   73.399   2.521   9.17
C   73.564   3.599   8.113
C   72.486   4.662   8.169
O   71.483   4.453   8.89
O   72.639   5.707   7.492
O   74.411   0.953   11.536
H   73.921   -0.029   7.708
H   75.377   1.989   9.341
H   72.559   2.042   8.981
H   73.378   2.964   10.05
H   74.43   4.045   8.26
H   73.516   3.173   7.226
H   50.0616   -17.4152   -4.25803
