362
5.xyz
C              -23.005             25.737              18.977              
O              -23.932             25.708              19.776              
N              -22.899             26.701              18.05               
C              -23.947             27.704              17.945              
C              -25.231             27.146              17.345              
O              -26.357             27.433              17.791              
C              -23.444             28.855              17.07               
O              -22.123             29.138              17.458              
C              -24.242             30.115              17.26               
H              -22.064             26.662              17.465              
H              -24.157             28.048              18.875              
H              -23.445             28.551              16.1                
H              -23.647             30.86               17.582              
H              -24.665             30.394              16.392              
H              -24.969             29.969              17.939              
H              -21.46              28.642              16.879              
N              -25.095             26.355              16.278              
C              -26.292             25.965              15.538              
C              -26.77              27.187              14.751              
O              -26.056             28.181              14.598              
H              -24.147             26.071              16.046              
H              -26.074             25.231              14.906              
H              -27.002             25.682              16.171              
N              -27.953             27.176              14.162              
C              -28.406             28.351              13.431              
C              -29.658             28.758              14.171              
O              -30.613             27.959              14.117              
C              -28.757             28.012              11.992              
C              -29.061             29.246              11.143              
H              -28.497             26.311              14.26               
H              -27.737             29.06               13.527              
H              -27.992             27.532              11.56               
H              -29.569             27.426              11.97               
N              -30.198             29.958              11.044              
C              -28.133             29.849              10.319              
C              -29.992             30.952              10.211              
N              -28.745             30.874              9.784               
H              -31.059             29.771              11.52               
H              -27.199             29.528              10.191              
H              -30.656             31.644              9.944               
N              -29.735             29.938              14.846              
C              -30.795             30.285              15.808              
C              -32.179             29.978              15.231              
O              -32.446             30.273              14.054              
C              -30.548             31.771              16.115              
C              -29.804             32.281              14.91               
C              -28.887             31.1                14.578              
H              -30.656             29.802              16.678              
H              -31.415             32.257              16.229              
H              -29.997             31.874              16.943              
H              -30.424             32.459              14.163              
H              -29.271             33.08               15.138              
H              -28.607             31.13               13.622              
H              -28.081             31.104              15.167              
N              -32.867             29.127              16.007              
C              -34.187             28.635              15.654              
C              -34.264             27.458              14.655              
O              -35.213             26.667              14.737              
H              -32.366             28.854              16.883              
H              -34.687             28.356              16.514              
H              -34.749             29.414              15.273              
N              -33.291             27.254              13.744              
C              -33.394             26.204              12.734              
C              -32.569             24.971              13.011              
O              -33.055             23.845              12.904              
C              -33.021             26.833              11.349              
C              -34.008             27.928              11.053              
C              -33.156             25.847              10.187              
C              -33.526             28.924              10.006              
H              -32.484             27.898              13.828              
H              -34.372             25.912              12.735              
H              -32.121             27.223              11.443              
H              -34.864             27.523              10.73               
H              -34.198             28.433              11.897              
H              -32.942             26.314              9.332               
H              -32.522             25.089              10.323              
H              -34.091             25.501              10.155              
H              -33.351             28.44               9.152               
H              -34.231             29.616              9.865               
H              -32.687             29.356              10.329              
N              -31.284             25.137              13.318              
C              -30.397             23.987              13.511              
C              -30.064             24.051              14.989              
O              -29.709             25.148              15.413              
C              -29.079             24.118              12.682              
C              -29.364             24.359              11.205              
C              -28.254             22.864              12.848              
C              -30.147             23.235              10.516              
H              -30.975             26.119              13.406              
H              -30.95              23.19               13.378              
H              -28.581             24.904              13.041              
H              -29.884             25.208              11.11               
H              -28.492             24.469              10.725              
H              -27.386             22.961              12.359              
H              -28.067             22.706              13.818              
H              -28.752             22.079              12.479              
H              -31.025             23.129              10.973              
H              -30.285             23.479              9.561               
H              -29.622             22.391              10.582              
N              -30.143             22.973              15.79               
C              -29.676             22.915              17.186              
C              -28.164             23.026              17.309              
O              -27.449             22.741              16.337              
C              -30.177             21.593              17.695              
C              -31.17              21.125              16.66               
C              -30.595             21.653              15.379              
H              -30.136             23.63               17.74               
H              -29.43              20.924              17.785              
H              -30.628             21.687              18.59               
H              -31.218             20.132              16.653              
H              -32.066             21.514              16.843              
H              -29.833             21.095              15.065              
H              -31.29              21.717              14.667              
N              -27.603             23.33               18.491              
C              -26.187             23.096              18.772              
C              -25.831             21.625              18.522              
O              -26.633             20.705              18.703              
C              -25.973             23.474              20.231              
C              -27.227             24.197              20.671              
C              -28.324             23.776              19.698              
H              -25.605             23.698              18.22               
H              -25.826             22.653              20.8                
H              -25.169             24.074              20.336              
H              -27.469             23.936              21.609              
H              -27.087             25.19               20.636              
H              -28.873             23.029              20.08               
H              -28.929             24.548              19.485              
N              -24.603             21.465              18.024              
C              -23.94              20.179              17.84               
C              -24.655             19.26               16.866              
O              -24.505             18.06               17.009              
C              -23.776             19.481              19.243              
C              -22.948             20.357              20.169              
H              -24.137             22.381              17.766              
H              -23.003             20.354              17.483              
H              -24.669             19.358              19.636              
H              -23.307             18.626              19.112              
N              -21.659             20.635              20.06               
C              -23.436             21.055              21.254              
C              -21.361             21.473              21.029              
N              -22.426             21.724              21.749              
H              -21.015             20.288              19.381              
H              -24.387             21.022              21.563              
H              -20.445             21.864              21.193              
N              -25.41              19.774              15.888              
C              -26.146             18.942              14.942              
C              -25.363             18.371              13.738              
O              -24.641             19.131              13.095              
C              -27.29              19.765              14.407              
H              -25.424             20.818              15.864              
H              -26.551             18.143              15.456              
H              -27.814             19.229              13.742              
H              -27.896             20.037              15.158              
H              -26.937             20.588              13.958              
N              -25.45              17.075              13.388              
C              -24.927             16.543              12.135              
C              -25.977             16.869              11.054              
O              -27.169             16.612              11.223              
C              -24.741             14.995              12.219              
O              -23.652             14.731              13.119              
C              -24.504             14.374              10.862              
H              -25.932             16.48               14.105              
H              -24.093             17.018              11.904              
H              -25.583             14.593              12.607              
H              -25.135             13.606              10.719              
H              -24.653             15.056              10.14               
H              -23.561             14.034              10.798              
H              -23.84              15.135              14.02               
N              -25.559             17.407              9.91                
C              -26.486             17.8                8.87                
C              -26.378             16.846              7.674               
O              -25.318             16.283              7.397               
C              -26.155             19.249              8.488               
C              -26.269             20.287              9.592               
C              -25.974             21.636              9                   
C              -27.67              20.25               10.235              
H              -24.527             17.516              9.836               
H              -27.423             17.745              9.227               
H              -25.213             19.264              8.154               
H              -26.777             19.516              7.755               
H              -25.609             20.078              10.304              
H              -26.631             21.842              8.27                
H              -26.042             22.345              9.708               
H              -25.047             21.648              8.616               
H              -27.826             19.344              10.622              
H              -27.715             20.94               10.954              
H              -28.354             20.443              9.535               
N              -27.48              16.603              6.993               
C              -27.48              15.701              5.891               
C              -28                 16.536              4.744               
O              -29.08              17.101              4.849               
C              -28.4               14.494              6.186               
C              -28.433             13.643              4.936               
C              -27.879             13.627              7.35                
H              -28.321             17.119              7.33                
H              -26.553             15.442              5.682               
H              -29.308             14.842              6.33                
H              -28.96              12.809              5.108               
H              -28.861             14.155              4.189               
H              -27.5               13.394              4.671               
H              -27.463             14.223              8.032               
H              -28.646             13.132              7.748               
H              -27.203             12.987              6.994               
N              -27.24              16.718              3.668               
C              -27.73              17.488              2.536               
C              -27.823             16.583              1.301               
O              -26.935             15.773              1.047               
C              -26.788             18.63               2.219               
C              -26.904             19.834              3.099               
C              -26.145             19.919              4.271               
C              -27.766             20.852              2.738               
C              -26.272             21.035              5.059               
C              -27.879             21.965              3.543               
C              -27.135             22.055              4.7                 
H              -26.307             16.279              3.709               
H              -28.665             17.772              2.751               
H              -25.852             18.287              2.294               
H              -26.963             18.921              1.279               
H              -25.534             19.19               4.518               
H              -28.3               20.781              1.902               
H              -25.729             21.111              5.912               
H              -28.512             22.714              3.28                
H              -27.216             22.865              5.29                
N              -28.896             16.699              0.551               
C              -29.096             16.013              -0.722              
C              -28.838             17.181              -1.661              
O              -29.583             18.151              -1.691              
C              -30.523             15.52               -0.857              
C              -30.88              14.906              -2.202              
O              -30.149             15.072              -3.177              
O              -31.902             14.24               -2.256              
H              -29.63              17.35               0.954               
H              -28.364             15.391              -0.834              
H              -30.685             14.829              -0.144              
H              -31.141             16.297              -0.693              
N              -27.742             17.057              -2.39               
C              -27.205             18.12               -3.234              
C              -26.988             17.618              -4.676              
O              -26.435             16.532              -4.904              
C              -25.867             18.633              -2.587              
C              -25.214             19.7                -3.45               
C              -26.156             19.403              -1.336              
H              -27.28              16.113              -2.311              
H              -27.877             18.866              -3.272              
H              -25.248             17.856              -2.551              
H              -25.39              19.505              -4.415              
H              -25.593             20.596              -3.218              
H              -24.227             19.705              -3.287              
H              -27.11              19.258              -1.058              
H              -25.55              19.096              -0.597              
H              -26.007             20.383              -1.495              
N              -27.445             18.386              -5.653              
C              -27.274             18.032              -7.034              
C              -26.493             19.16               -7.644              
O              -26.943             20.305              -7.541              
C              -28.626             17.889              -7.68               
C              -28.491             17.719              -9.207              
C              -29.687             17.109              -9.939              
O              -30.832             17.282              -9.533              
O              -29.437             16.393              -10.909             
H              -27.93              19.252              -5.33               
H              -26.766             17.186              -7.113              
H              -29.052             17.083              -7.344              
H              -29.135             18.703              -7.531              
H              -28.332             18.621              -9.598              
H              -27.707             17.129              -9.378              
N              -25.331             18.879              -8.222              
C              -24.541             19.937              -8.839              
C              -24.997             20.061              -10.305             
O              -24.758             19.212              -11.169             
C              -23.042             19.593              -8.726              
C              -22.084             20.5                -9.526              
C              -22.285             21.982              -9.146              
C              -20.642             20.069              -9.259              
H              -25.05              17.889              -8.196              
H              -24.734             20.796              -8.382              
H              -22.785             19.665              -7.77               
H              -22.917             18.667              -9.057              
H              -22.267             20.386              -10.499             
H              -22.102             22.094              -8.173              
H              -21.654             22.541              -9.678              
H              -23.225             22.243              -9.348              
H              -20.522             19.119              -9.545              
H              -20.02              20.656              -9.777              
H              -20.447             20.153              -8.282              
N              -25.678             21.154              -10.567             
C              -26.348             21.375              -11.854             
C              -25.467             21.97               -12.953             
O              -25.493             21.569              -14.141             
C              -27.588             22.313              -11.668             
C              -28.715             21.911              -10.685             
C              -29.8               22.986              -10.546             
C              -29.343             20.646              -11.217             
H              -25.707             21.854              -9.792              
H              -26.704             20.475              -12.185             
H              -27.237             23.207              -11.367             
H              -28.01              22.425              -12.574             
H              -28.304             21.737              -9.783              
H              -30.217             23.149              -11.438             
H              -30.495             22.67               -9.902              
H              -29.386             23.829              -10.208             
H              -28.653             19.92               -11.273             
H              -30.082             20.349              -10.607             
H              -29.72              20.811              -12.132             
N              -24.687             22.963              -12.53              
C              -24.006             23.807              -13.498             
C              -22.862             24.54               -12.806             
O              -22.989             24.76               -11.592             
C              -25.022             24.781              -13.983             
C              -24.636             25.55               -15.184             
C              -25.849             26.349              -15.561             
C              -25.35              27.316              -16.606             
N              -26.4               28.289              -16.837             
H              -24.616             23.07               -11.513             
H              -23.626             23.234              -14.225             
H              -25.876             24.277              -14.184             
H              -25.222             25.432              -13.233             
H              -23.899             26.166              -14.972             
H              -24.41              24.94               -15.922             
H              -26.512             25.765              -15.962             
H              -26.163             26.85               -14.792             
H              -24.534             27.764              -16.265             
H              -25.155             26.815              -17.44              
H              -26.111             29.199              -16.519             
H              -26.615             28.347              -17.818             
H              -27.236             28.028              -16.341             
N              -21.808             24.924              -13.555             
C              -20.759             25.798              -13.043             
C              -20.78              27.006              -13.939             
O              -20.894             26.912              -15.179             
C              -19.342             25.182              -13.102             
C              -19.105             23.92               -12.241             
C              -17.704             23.443              -12.474             
C              -19.278             24.208              -10.753             
H              -21.816             24.54               -14.523             
H              -20.995             26.072              -12.125             
H              -19.16              24.931              -14.047             
H              -18.698             25.873              -12.795             
H              -19.758             23.227              -12.518             
H              -17.047             24.157              -12.214             
H              -17.522             22.622              -11.925             
H              -17.571             23.22               -13.444             
H              -20.208             24.534              -10.583             
H              -19.117             23.37               -10.231             
H              -18.622             24.908              -10.471             
N              -20.751             28.143              -13.287             
C              -20.769             29.428              -13.969             
C              -19.565             30.266              -13.531             
O              -18.783             29.796              -12.685             
C              -22.037             30.18               -13.619             
C              -23.301             29.483              -14.035             
C              -24.548             30.301              -13.751             
O              -24.59              31.067              -12.776             
O              -25.506             30.152              -14.508             
O              -19.461             31.405              -13.993             
H              -20.714             28.054              -12.246             
H              -20.733             29.29               -14.961             
H              -22.061             30.29               -12.637             
H              -22.007             31.053              -14.079             
H              -23.27              29.325              -15.007             
H              -23.382             28.642              -13.528             
H              -22.2944            24.9525             19.0342             
