218
6.xyz
C              21.113              12.3                39.368              
O              20.637              11.671              38.422              
N              21.33               11.745              40.557              
C              21.018              10.339              40.796              
C              19.528              10.05               40.704              
O              18.718              10.687              41.378              
C              21.525              9.893               42.171              
C              23.035              9.966               42.292              
O              23.729              9.792               41.267              
O              23.531              10.179              43.419              
H              21.726              12.376              41.272              
H              21.47               9.806               40.063              
H              21.12               10.489              42.855              
H              21.237              8.954               42.314              
N              19.17               9.08                39.87               
C              17.772              8.704               39.703              
C              17.369              7.698               40.774              
O              18.182              6.893               41.223              
C              17.55               8.085               38.317              
C              17.847              9.027               37.163              
C              16.867              10.185              37.133              
N              15.512              9.756               36.794              
C              15.145              9.313               35.595              
N              16.032              9.237               34.611              
N              13.888              8.95                35.378              
H              19.951              8.627               39.363              
H              17.2                9.523               39.801              
H              18.147              7.293               38.233              
H              16.597              7.805               38.252              
H              18.766              9.398               37.264              
H              17.77               8.532               36.302              
H              16.86               10.611              38.036              
H              17.184              10.842              36.451              
H              14.811              9.799               37.515              
H              16.985              9.489               34.756              
H              15.738              8.918               33.701              
H              13.223              8.993               36.128              
H              13.603              8.634               34.476              
N              16.112              7.752               41.192              
C              15.613              6.821               42.19               
C              14.127              6.628               41.965              
O              13.515              7.346               41.178              
C              15.882              7.346               43.61               
C              15.126              8.604               43.995              
C              13.777              8.554               44.351              
C              15.76               9.847               43.999              
C              13.079              9.709               44.701              
C              15.069              11.011              44.347              
C              13.73               10.933              44.695              
O              13.034              12.076              45.02               
H              15.535              8.494               40.757              
H              16.068              5.942               42.059              
H              15.636              6.623               44.26               
H              16.863              7.537               43.689              
H              13.3                7.674               44.355              
H              16.724              9.908               43.751              
H              12.113              9.652               44.956              
H              15.54               11.89               44.343              
H              13.682              12.807              45.223              
N              13.546              5.647               42.642              
C              12.125              5.397               42.494              
C              11.426              5.443               43.837              
O              12.038              5.213               44.879              
C              11.883              4.041               41.82               
C              12.277              4.009               40.347              
C              11.923              2.681               39.691              
C              12.356              2.661               38.229              
N              12.029              1.373               37.555              
H              14.17               5.103               43.256              
H              11.728              6.107               41.897              
H              12.419              3.354               42.302              
H              10.912              3.828               41.89               
H              11.797              4.745               39.866              
H              13.265              4.155               40.271              
H              12.393              1.95                40.17               
H              10.94               2.553               39.731              
H              11.895              3.413               37.745              
H              13.349              2.814               38.183              
H              12.346              1.406               36.608              
H              12.483              0.624               38.035              
H              11.04               1.232               37.573              
N              10.14               5.766               43.803              
C              9.337               5.831               45.011              
C              7.908               5.521               44.614              
O              7.568               5.532               43.431              
C              9.428               7.225               45.653              
C              8.646               8.317               44.949              
C              7.306               8.561               45.264              
C              9.246               9.108               43.971              
C              6.585               9.57                44.618              
C              8.537               10.118              43.321              
C              7.209               10.344              43.648              
O              6.509               11.344              43.007              
H              9.766               5.965               42.853              
H              9.649               5.125               45.638              
H              9.09                7.156               46.594              
H              10.393              7.496               45.67               
H              6.853               8.007               45.961              
H              10.202              8.951               43.73               
H              5.629               9.731               44.855              
H              8.986               10.674              42.623              
H              5.612               11.439              43.433              
N              7.078               5.221               45.601              
C              5.684               4.919               45.34               
C              4.842               5.633               46.378              
O              5.371               6.316               47.257              
C              5.441               3.409               45.409              
C              5.838               2.763               46.729              
C              5.453               1.285               46.745              
C              5.899               0.599               48.025              
N              7.383               0.548               48.142              
H              7.501               5.221               46.547              
H              5.438               5.259               44.434              
H              4.466               3.243               45.26               
H              5.967               2.975               44.676              
H              6.825               2.838               46.847              
H              5.368               3.225               47.475              
H              4.463               1.213               46.672              
H              5.888               0.833               45.972              
H              5.524               1.1                 48.811              
H              5.536               -0.338              48.037              
H              7.635               -0.058              48.896              
H              7.771               0.2                 47.289              
H              7.733               1.467               48.319              
N              3.53                5.488               46.269              
C              2.63                6.119               47.217              
C              1.723               5.053               47.819              
O              1.053               4.318               47.098              
C              1.804               7.208               46.52               
C              2.65                8.301               45.857              
C              1.787               9.439               45.326              
N              1.116               10.159              46.408              
C              1.607               11.232              47.022              
N              2.781               11.735              46.664              
N              0.925               11.798              48.007              
H              3.215               4.905               45.475              
H              3.165               6.535               47.952              
H              1.253               6.779               45.814              
H              1.223               7.642               47.198              
H              3.284               8.676               46.527              
H              3.152               7.908               45.092              
H              2.376               10.067              44.828              
H              1.104               9.049               44.717              
H              0.216               9.817               46.71               
H              3.305               11.331              45.918              
H              3.149               12.535              47.15               
H              0.032               11.427              48.273              
H              1.296               12.593              48.485              
N              1.731               4.957               49.144              
C              0.909               3.983               49.851              
C              0.012               4.709               50.844              
O              0.487               5.492               51.666              
C              1.78                2.96                50.614              
C              0.897               2.032               51.439              
C              2.618               2.155               49.628              
H              2.365               5.627               49.625              
H              0.323               3.523               49.183              
H              2.348               3.466               51.252              
H              -0.046              2.362               51.415              
H              0.937               1.109               51.058              
H              1.221               2.017               52.384              
H              2.382               2.428               48.696              
H              3.587               2.334               49.797              
H              2.428               1.182               49.752              
N              -1.288              4.444               50.763              
C              -2.257              5.08                51.647              
C              -2.187              6.6                 51.549              
O              -2.397              7.308               52.535              
C              -2.027              4.644               53.094              
C              -2.296              3.169               53.304              
H              -1.548              3.757               50.028              
H              -3.174              4.807               51.33               
H              -1.079              4.832               53.332              
H              -2.639              5.167               53.681              
O              -3.369              2.67                52.962              
N              -1.324              2.463               53.872              
H              -0.472              2.916               54.141              
H              -1.441              1.484               54.031              
N              -1.882              7.091               50.352              
C              -1.805              8.523               50.131              
C              -0.504              9.197               50.53               
O              -0.359              10.404              50.346              
H              -1.711              6.382               49.618              
H              -1.987              8.718               49.135              
H              -2.582              8.981               50.631              
N              0.442               8.434               51.07               
C              1.725               8.998               51.49               
C              2.896               8.447               50.683              
O              2.887               7.29                50.259              
C              1.951               8.733               52.974              
H              0.199               7.433               51.165              
H              1.692               10.003              51.364              
H              2.801               8.222               53.095              
H              2.013               9.603               53.462              
H              1.187               8.201               53.337              
N              3.906               9.29                50.479              
C              5.1                 8.91                49.731              
C              5.906               7.853               50.475              
O              6.143               7.97                51.675              
C              6.022               10.128              49.494              
C              5.33                11.138              48.576              
C              7.351               9.673               48.9                
C              6.122               12.417              48.371              
H              3.771               10.236              50.896              
H              4.776               8.48                48.882              
H              6.18                10.564              50.37               
H              5.177               10.708              47.689              
H              4.446               11.372              48.977              
H              7.95                10.463              48.783              
H              7.782               9.016               49.515              
H              7.189               9.243               48.014              
H              7.005               12.195              47.961              
H              5.613               13.025              47.765              
H              6.263               12.861              49.254              
N              6.324               6.818               49.753              
H              6.031               6.837               48.756              
H              21.3713             13.3281             39.2521             
H              6.88188             6.07971             50.1561             
