379

C   24.1   19.914   22.029
C   22.973   18.99   22.453
O   21.814   19.192   22.063
C   24.171   21.129   22.935
C   25.351   21.982   22.618
O   25.264   23.205   22.687
N   26.463   21.36   22.275
H   24.909   19.361   21.954
H   23.339   21.662   22.811
H   24.239   20.814   23.878
H   26.484   20.357   22.231
H   27.289   21.881   22.056
N   23.316   17.984   23.24
C   22.349   17.008   23.718
C   21.245   17.609   24.599
O   21.399   18.697   25.156
C   23.079   15.92   24.508
C   23.536   16.365   25.897
C   24.112   15.209   26.705
N   24.667   15.684   27.968
C   23.973   15.777   29.101
N   22.695   15.423   29.131
N   24.552   16.248   30.2
H   24.33   17.95   23.487
H   21.906   16.564   22.916
H   22.463   15.148   24.622
H   23.885   15.647   23.995
H   24.242   17.063   25.804
H   22.757   16.736   26.397
H   23.38   14.565   26.886
H   24.829   14.786   26.166
H   25.634   15.959   27.986
H   22.24   15.065   28.32
H   22.174   15.516   29.989
H   25.519   16.513   30.173
H   24.032   16.336   31.045
N   20.13   16.89   24.693
C   18.996   17.267   25.542
C   19.564   17.024   26.936
O   19.776   15.881   27.331
C   17.811   16.322   25.267
C   16.632   16.535   26.219
O   16.827   16.506   27.448
O   15.499   16.711   25.73
H   20.129   16.022   24.104
H   18.869   18.228   25.447
H   17.5   16.484   24.337
H   18.134   15.388   25.368
N   19.834   18.103   27.662
C   20.425   18.023   28.997
C   19.79   17.018   29.941
O   20.486   16.254   30.605
C   20.403   19.4   29.66
C   21.519   20.316   29.198
C   22.864   19.889   29.737
H   19.59   19.007   27.202
H   21.41   17.761   28.881
H   19.529   19.842   29.453
H   20.486   19.28   30.651
H   21.555   20.301   28.2
H   21.326   21.243   29.515
O   22.956   19.325   30.832
N   23.919   20.155   28.975
H   24.86   19.91   29.278
H   23.773   20.611   28.075
N   18.464   17.019   29.984
C   17.712   16.148   30.876
C   17.531   14.714   30.441
O   17.541   13.823   31.275
C   16.32   16.738   31.122
C   16.119   17.321   32.506
C   14.819   18.101   32.582
N   15.03   19.449   33.096
C   14.82   19.801   34.36
N   14.392   18.901   35.241
N   15.045   21.052   34.747
H   18.01   17.693   29.328
H   18.182   16.152   31.797
H   16.169   17.463   30.453
H   15.648   16.012   30.989
H   16.081   16.586   33.176
H   16.866   17.943   32.718
H   14.435   18.154   31.665
H   14.199   17.61   33.187
H   15.353   20.154   32.457
H   14.242   17.953   34.977
H   14.218   19.183   36.192
H   15.392   21.72   34.084
H   14.872   21.326   35.69
N   17.374   14.491   29.14
C   17.099   13.151   28.634
C   18.171   12.412   27.841
O   18.143   11.181   27.757
C   15.801   13.194   27.825
C   14.588   13.454   28.705
C   13.303   13.594   27.916
N   13.386   14.634   26.9
C   12.57   14.703   25.854
N   11.619   13.79   25.702
N   12.698   15.685   24.971
H   17.461   15.326   28.537
H   16.834   12.551   29.446
H   15.868   13.927   27.167
H   15.68   12.32   27.383
H   14.478   12.694   29.351
H   14.731   14.302   29.223
H   13.111   12.718   27.476
H   12.568   13.816   28.556
H   14.096   15.335   26.994
H   11.485   13.061   26.365
H   11.014   13.836   24.894
H   13.403   16.385   25.111
H   12.1   15.73   24.176
N   19.105   13.153   27.253
C   20.174   12.528   26.488
C   21.314   12.094   27.399
O   21.701   12.808   28.325
C   20.697   13.49   25.431
C   19.882   13.438   24.158
O   19.311   12.356   23.859
O   19.81   14.471   23.456
H   19.007   14.172   27.383
H   19.795   11.693   26.071
H   20.653   14.41   25.801
H   21.634   13.241   25.221
N   21.862   10.904   27.155
C   22.964   10.449   28.0
C   24.174   11.388   27.873
O   24.512   11.854   26.78
C   23.244   9.037   27.497
C   22.711   9.016   26.103
C   21.514   9.923   26.116
H   22.677   10.375   28.96
H   24.231   8.845   27.506
H   22.778   8.356   28.069
H   23.405   9.347   25.455
H   22.45   8.081   25.84
H   21.387   10.375   25.235
H   20.681   9.429   26.363
N   24.822   11.69   29.004
C   25.992   12.573   29.054
C   27.194   12.089   28.248
O   28.103   12.862   27.954
C   26.311   12.67   30.543
C   25.642   11.48   31.167
C   24.436   11.196   30.338
H   25.731   13.521   28.769
H   27.304   12.641   30.699
H   25.951   13.524   30.932
H   26.274   10.693   31.176
H   25.389   11.687   32.122
H   24.232   10.217   30.3
H   23.629   11.688   30.672
N   27.201   10.809   27.899
C   28.303   10.238   27.131
C   28.576   11.034   25.851
O   29.719   11.152   25.437
C   28.002   8.773   26.773
C   28.602   8.316   25.443
C   28.501   6.817   25.215
H   26.377   10.263   28.211
H   29.135   10.281   27.7
H   28.368   8.185   27.496
H   27.009   8.654   26.722
H   28.12   8.785   24.7
H   29.569   8.578   25.424
O   27.446   6.21   25.409
N   29.607   6.212   24.792
H   29.62   5.208   24.631
H   30.442   6.771   24.631
N   27.527   11.584   25.241
C   27.67   12.334   23.992
C   27.184   13.77   24.123
O   25.998   14.034   23.96
C   26.864   11.658   22.865
C   27.371   10.292   22.444
C   28.674   10.124   22.009
C   26.54   9.171   22.482
C   29.149   8.87   21.619
C   27.004   7.914   22.094
C   28.309   7.774   21.666
O   28.795   6.542   21.292
H   26.618   11.438   25.718
H   28.652   12.354   23.749
H   25.92   11.559   23.179
H   26.888   12.259   22.066
H   29.294   10.91   21.969
H   25.597   9.269   22.793
H   30.096   8.771   21.309
H   26.393   7.125   22.127
H   29.467   6.662   20.564
N   28.091   14.717   24.408
C   27.637   16.108   24.531
C   27.009   16.626   23.238
O   26.089   17.439   23.274
C   28.91   16.877   24.882
C   30.035   15.992   24.4
C   29.54   14.591   24.641
H   26.992   16.204   25.304
H   28.935   17.762   24.413
H   28.979   17.026   25.87
H   30.208   16.152   23.429
H   30.866   16.176   24.923
H   29.944   13.945   23.998
H   29.721   14.295   25.577
N   27.498   16.139   22.1
C   27.001   16.586   20.794
C   26.383   15.404   20.038
O   26.985   14.334   19.944
C   28.161   17.221   19.966
C   27.651   17.658   18.601
C   28.755   18.409   20.728
H   28.246   15.43   22.212
H   26.28   17.263   20.949
H   28.837   16.511   19.816
H   28.416   17.992   18.049
H   27.223   16.881   18.14
H   26.979   18.39   18.714
H   29.227   19.006   20.082
H   28.017   18.909   21.177
H   29.399   18.069   21.41
N   25.188   15.607   19.494
C   24.471   14.53   18.81
C   23.765   14.93   17.504
O   23.451   16.104   17.278
C   23.388   13.922   19.764
C   24.049   13.104   20.897
C   22.557   15.042   20.377
H   24.817   16.568   19.593
H   25.149   13.799   18.579
H   22.845   13.286   19.23
H   24.148   12.16   20.597
H   24.943   13.495   21.097
H   23.469   13.147   21.706
H   22.565   15.831   19.764
H   21.618   14.723   20.505
H   22.949   15.298   21.26
N   23.543   13.959   16.605
C   22.854   14.273   15.355
C   21.38   14.445   15.712
O   20.872   13.73   16.567
C   23.091   13.036   14.494
C   23.267   11.926   15.478
C   23.953   12.538   16.671
H   23.217   15.09   14.938
H   22.304   12.863   13.896
H   23.911   13.147   13.929
H   22.374   11.54   15.738
H   23.828   11.19   15.082
H   23.641   12.125   17.525
H   24.947   12.459   16.604
N   20.701   15.408   15.096
C   19.277   15.635   15.372
C   18.414   15.679   14.117
O   17.191   15.718   14.215
C   19.04   16.954   16.155
C   19.776   16.906   17.505
C   19.493   18.148   15.325
H   21.247   15.971   14.422
H   18.948   14.867   15.951
H   18.072   17.014   16.358
H   19.656   16.002   17.909
H   20.746   17.084   17.354
H   19.394   17.601   18.109
H   19.217   18.992   15.784
H   20.488   18.125   15.231
H   19.068   18.102   14.422
N   19.049   15.665   12.943
C   18.333   15.713   11.672
C   19.229   15.202   10.549
O   20.431   15.488   10.526
C   17.937   17.167   11.319
C   16.789   17.713   12.119
H   20.086   15.617   13.014
H   17.532   15.112   11.734
H   18.737   17.761   11.464
H   17.69   17.203   10.343
N   15.534   17.142   12.115
C   16.709   18.783   12.949
C   14.731   17.835   12.905
N   15.42   18.836   13.424
H   15.273   16.328   11.594
H   17.446   19.414   13.173
H   13.771   17.637   13.078
N   18.647   14.452   9.616
C   19.402   13.986   8.466
C   19.073   15.057   7.458
O   17.973   15.08   6.909
C   18.889   12.639   7.96
C   19.574   12.18   6.659
C   21.107   12.216   6.859
C   19.091   10.762   6.254
H   17.651   14.241   9.78
H   20.351   14.025   8.672
H   19.078   11.959   8.645
H   17.929   12.724   7.771
H   19.329   12.798   5.927
H   21.349   11.603   7.607
H   21.549   11.919   6.017
H   21.381   13.148   7.079
H   18.105   10.788   6.114
H   19.551   10.496   5.412
H   19.318   10.126   6.986
N   20.004   15.965   7.216
C   19.707   17.038   6.283
C   19.745   16.645   4.81
O   18.922   17.124   4.005
C   20.648   18.227   6.51
C   20.133   19.493   5.856
O   20.627   19.855   4.765
O   19.22   20.122   6.431
H   20.889   15.851   7.71
H   18.753   17.352   6.479
H   20.721   18.377   7.487
H   21.529   17.999   6.119
N   20.67   15.764   4.451
C   20.8   15.403   3.055
C   21.76   14.25   2.765
O   22.696   13.998   3.521
C   21.283   16.642   2.295
C   20.924   16.677   0.835
C   19.973   17.826   0.563
N   19.66   17.92   -0.856
C   18.646   18.615   -1.35
N   17.833   19.288   -0.539
N   18.443   18.63   -2.659
H   21.247   15.388   5.209
H   19.875   15.143   2.695
H   20.885   17.448   2.739
H   22.281   16.682   2.377
H   21.741   16.816   0.288
H   20.469   15.833   0.578
H   19.138   17.666   1.076
H   20.41   18.667   0.862
H   20.252   17.425   -1.503
H   17.985   19.297   0.445
H   17.056   19.796   -0.926
H   19.064   18.136   -3.271
H   17.669   19.137   -3.042
N   21.502   13.541   1.671
C   22.397   12.482   1.237
C   22.875   12.985   -0.118
O   22.079   13.434   -0.948
C   21.711   11.072   1.113
C   20.323   11.166   0.484
C   21.589   10.439   2.503
C   19.572   9.835   0.47
H   20.634   13.804   1.173
H   23.172   12.509   1.833
H   22.291   10.517   0.522
H   19.784   11.829   0.994
H   20.421   11.48   -0.457
H   21.196   9.527   2.415
H   22.494   10.376   2.916
H   20.999   11.006   3.072
H   19.46   9.517   1.408
H   18.68   9.971   0.048
H   20.099   9.171   -0.054
N   24.185   12.955   -0.315
C   24.802   13.434   -1.548
C   25.887   12.466   -1.942
O   26.498   12.702   -3.002
C   25.485   14.805   -1.365
C   25.365   15.265   0.087
C   24.889   15.82   -2.32
C   24.032   15.905   0.414
O   26.12   11.507   -1.18
H   24.735   12.562   0.481
H   24.095   13.384   -2.249
H   26.449   14.696   -1.577
H   25.5   14.475   0.682
H   26.091   15.928   0.267
H   25.368   16.692   -2.226
H   24.982   15.493   -3.26
H   23.92   15.951   -2.111
H   23.3   15.247   0.248
H   24.024   16.18   1.374
H   23.9   16.708   -0.166
H   23.8205   20.211   21.0704
