240

C   15.198   -4.467   8.04
O   15.13   -3.27   7.743
N   15.843   -5.351   7.286
C   16.493   -4.907   6.064
C   15.442   -4.589   4.987
O   15.781   -4.131   3.902
C   17.47   -5.97   5.564
C   18.707   -6.122   6.437
C   19.842   -6.825   5.725
H   15.839   -6.316   7.626
H   16.988   -4.057   6.26
H   17.0   -6.852   5.536
H   17.77   -5.724   4.641
H   19.017   -5.212   6.713
H   18.461   -6.651   7.25
O   20.128   -6.554   4.548
N   20.506   -7.729   6.432
H   21.276   -8.256   6.017
H   20.238   -7.893   7.401
N   14.171   -4.832   5.307
C   13.059   -4.569   4.403
C   12.437   -3.249   4.799
O   12.076   -3.085   5.943
C   11.992   -5.645   4.541
C   12.417   -6.964   4.003
C   12.842   -6.842   2.56
H   14.042   -5.23   6.268
H   13.426   -4.476   3.481
H   11.769   -5.747   5.513
H   11.171   -5.342   4.049
H   13.19   -7.307   4.53
H   11.657   -7.607   4.054
O   12.247   -6.074   1.791
N   13.878   -7.588   2.18
H   14.212   -7.569   1.22
H   14.334   -8.181   2.872
N   12.28   -2.326   3.859
C   11.689   -1.021   4.182
C   10.258   -1.063   4.72
O   9.927   -0.348   5.653
H   12.596   -2.591   2.916
H   12.278   -0.58   4.893
N   9.402   -1.891   4.135
C   8.019   -1.956   4.591
C   7.943   -2.258   6.09
O   7.183   -1.62   6.822
C   7.219   -3.007   3.799
O   7.031   -2.547   2.452
C   5.854   -3.232   4.445
H   9.784   -2.457   3.366
H   7.584   -1.062   4.429
H   7.755   -3.873   3.766
H   5.971   -3.67   5.338
H   5.389   -2.353   4.567
H   5.296   -3.822   3.858
H   6.31   -3.081   1.999
N   8.737   -3.217   6.549
C   8.753   -3.57   7.965
C   9.489   -2.526   8.813
O   9.026   -2.167   9.898
C   9.398   -4.942   8.142
C   8.716   -6.004   7.311
H   9.327   -3.68   5.836
H   7.794   -3.579   8.283
H   10.351   -4.88   7.862
H   9.335   -5.197   9.102
O   9.367   -6.893   6.761
N   7.389   -5.914   7.207
H   6.905   -5.167   7.663
H   6.883   -6.59   6.676
N   10.641   -2.06   8.325
C   11.423   -1.044   9.035
C   10.594   0.234   9.251
O   10.607   0.833   10.337
C   12.705   -0.712   8.236
H   10.928   -2.471   7.418
H   11.686   -1.406   9.935
H   12.629   0.213   7.875
H   13.49   -0.777   8.845
H   12.797   -1.364   7.489
N   9.867   0.645   8.214
C   9.056   1.864   8.279
C   7.861   1.79   9.226
O   7.36   2.82   9.661
C   8.58   2.269   6.875
C   9.714   2.795   5.964
S   10.699   4.177   6.62
C   9.424   5.405   6.899
H   9.923   0.041   7.373
H   9.66   2.623   8.599
H   8.166   1.474   6.424
H   7.889   2.993   6.957
H   10.326   1.989   5.731
H   9.289   3.051   5.051
H   8.692   5.008   7.454
H   9.815   6.192   7.379
H   9.049   5.705   6.021
N   7.407   0.583   9.556
C   6.272   0.448   10.462
C   6.615   1.076   11.808
O   5.767   1.686   12.458
C   5.915   -1.024   10.658
C   5.176   -1.628   9.481
C   4.959   -3.124   9.638
H   7.907   -0.21   9.133
H   5.502   0.957   10.074
H   6.758   -1.543   10.798
H   5.334   -1.108   11.469
H   4.284   -1.187   9.398
H   5.707   -1.471   8.65
O   5.666   -3.792   10.402
N   3.977   -3.663   8.912
H   3.785   -4.656   8.956
H   3.424   -3.054   8.313
N   7.869   0.925   12.218
C   8.332   1.486   13.48
C   8.168   3.015   13.456
O   7.535   3.599   14.334
C   9.811   1.128   13.713
C   10.332   1.835   14.942
C   9.965   -0.377   13.828
H   8.477   0.384   11.574
H   7.755   1.131   14.216
H   10.328   1.468   12.934
H   11.12   1.338   15.311
H   10.613   2.767   14.704
H   9.614   1.877   15.64
H   9.711   -0.804   12.96
H   10.916   -0.598   14.045
H   9.368   -0.718   14.555
N   8.729   3.655   12.436
C   8.65   5.105   12.302
C   7.201   5.603   12.195
O   6.799   6.563   12.873
C   9.411   5.575   11.037
C   10.911   5.315   11.203
C   9.113   7.056   10.761
C   11.716   5.588   9.945
H   9.22   3.043   11.754
H   9.019   5.491   13.157
H   9.086   5.037   10.271
H   11.253   5.895   11.938
H   11.036   4.359   11.46
H   9.575   7.331   9.922
H   8.129   7.178   10.66
H   9.445   7.604   11.524
H   11.603   6.545   9.684
H   12.68   5.399   10.124
H   11.388   4.998   9.21
N   6.435   4.942   11.333
C   5.049   5.296   11.076
C   4.14   5.059   12.267
O   3.223   5.845   12.505
C   4.526   4.536   9.848
C   5.254   4.923   8.557
H   6.918   4.144   10.856
H   5.027   6.293   10.879
H   4.656   3.562   10.0
H   3.56   4.744   9.737
O   5.899   5.981   8.474
N   5.146   4.067   7.538
H   4.605   3.233   7.649
H   5.602   4.26   6.673
N   4.395   3.997   13.025
C   3.561   3.711   14.191
C   3.827   4.75   15.276
O   2.967   5.041   16.104
C   3.847   2.301   14.725
C   3.119   1.222   13.934
H   5.193   3.421   12.732
H   2.607   3.82   13.908
H   4.825   2.134   14.662
H   3.546   2.257   15.671
O   2.175   1.518   13.19
N   3.551   -0.036   14.087
H   4.317   -0.214   14.708
H   3.116   -0.778   13.591
N   5.027   5.313   15.254
C   5.411   6.311   16.231
C   4.901   7.703   15.886
O   4.425   8.414   16.769
C   6.932   6.345   16.377
C   7.452   5.438   17.462
C   6.777   5.324   18.686
C   8.615   4.688   17.278
C   7.244   4.484   19.699
C   9.094   3.845   18.278
C   8.403   3.745   19.488
O   8.847   2.892   20.478
H   5.651   4.982   14.492
H   5.016   6.048   17.13
H   7.335   6.063   15.511
H   7.204   7.279   16.592
H   5.943   5.856   18.838
H   9.111   4.756   16.415
H   6.751   4.415   20.562
H   9.926   3.314   18.135
H   8.807   3.364   21.356
N   4.987   8.098   14.617
C   4.533   9.434   14.229
C   3.092   9.507   13.695
O   2.645   10.56   13.238
C   5.525   10.069   13.233
C   5.704   9.349   11.912
C   6.455   10.189   10.864
O   7.343   10.981   11.208
N   6.101   10.019   9.589
H   5.383   7.412   13.964
H   4.58   10.031   15.057
H   5.215   11.012   13.04
H   6.428   10.129   13.685
H   6.225   8.509   12.063
H   4.805   9.121   11.537
H   6.544   10.548   8.857
H   5.372   9.339   9.375
N   2.378   8.385   13.772
C   0.981   8.296   13.352
C   0.092   9.009   14.378
C   0.432   8.639   15.814
C   0.532   7.112   15.99
N   -0.753   6.457   15.744
C   -0.913   5.159   15.523
N   0.128   4.342   15.511
N   -2.126   4.671   15.311
H   2.906   7.568   14.161
H   0.699   7.314   13.376
H   0.218   9.985   14.272
H   -0.848   8.751   14.206
H   1.31   9.03   16.064
H   -0.281   8.966   16.424
H   1.206   6.778   15.343
H   0.823   6.936   16.923
H   -1.58   7.039   15.743
H   1.05   4.683   15.688
H   -0.007   3.363   15.323
H   -2.921   5.282   15.338
H   -2.252   3.697   15.126
H   11.7115   -0.377592   3.31685
H   14.7283   -4.82577   8.92435
H   0.781362   8.68738   12.3495
