331

C   -43.468   -1.396   41.298
O   -42.731   -2.04   40.55
N   -43.303   -0.065   41.454
C   -42.519   0.788   40.516
C   -41.56   1.828   41.137
O   -40.406   1.951   40.728
C   -43.335   1.36   39.322
C   -44.032   0.296   38.472
C   -43.247   -0.638   37.793
C   -45.362   -0.001   38.762
C   -43.752   -1.904   37.53
C   -45.868   -1.266   38.501
C   -45.069   -2.219   37.869
O   -45.529   -3.491   37.676
H   -43.777   0.326   42.299
H   -41.958   0.159   39.928
H   -44.03   1.968   39.69
H   -42.708   1.862   38.736
H   -42.331   -0.397   37.499
H   -45.948   0.695   39.158
H   -43.172   -2.598   37.096
H   -46.805   -1.5   38.763
H   -46.42   -3.457   37.223
N   -42.06   2.583   42.093
C   -41.458   3.888   42.519
C   -41.813   4.293   43.996
O   -42.879   3.997   44.537
C   -41.778   4.982   41.455
C   -40.864   5.096   40.212
C   -39.664   5.814   40.257
C   -41.258   4.52   39.002
C   -38.86   5.929   39.124
C   -40.454   4.625   37.869
C   -39.257   5.332   37.932
O   -38.478   5.443   36.813
H   -42.924   2.208   42.549
H   -40.455   3.799   42.463
H   -42.72   4.823   41.124
H   -41.764   5.879   41.922
H   -39.38   6.249   41.108
H   -42.121   4.029   38.949
H   -38.0   6.438   39.169
H   -40.736   4.194   37.012
H   -38.793   6.217   36.265
N   -40.874   4.971   44.669
C   -41.015   5.467   46.069
C   -40.128   6.745   46.236
O   -38.913   6.68   46.053
C   -40.614   4.301   47.026
C   -40.553   4.577   48.542
C   -39.471   5.25   49.088
C   -41.541   4.096   49.385
C   -39.408   5.509   50.453
C   -41.484   4.335   50.754
C   -40.426   5.077   51.342
H   -39.992   5.135   44.115
H   -41.954   5.764   46.175
H   -41.275   3.56   46.887
H   -39.704   3.985   46.747
H   -38.726   5.556   48.501
H   -42.305   3.572   49.008
H   -38.616   6.018   50.828
H   -42.22   3.968   51.359
H   -40.398   5.276   52.28
N   -40.681   7.903   46.629
C   -39.861   9.116   46.925
C   -39.174   8.996   48.332
O   -39.852   8.774   49.336
C   -40.768   10.373   46.793
C   -40.128   11.717   46.415
O   -39.009   12.015   46.809
N   -40.74   12.568   45.632
H   -41.711   7.891   46.711
H   -39.124   9.142   46.253
H   -41.485   10.161   46.1
H   -41.253   10.495   47.682
H   -41.668   12.284   45.296
H   -40.353   13.426   45.374
N   -37.84   9.12   48.408
C   -37.06   8.926   49.672
C   -36.966   10.173   50.615
O   -37.169   10.058   51.823
C   -35.65   8.381   49.269
C   -35.313   7.035   49.882
H   -37.377   9.366   47.506
H   -37.505   8.176   50.199
H   -35.618   8.291   48.272
H   -34.959   9.043   49.563
N   -34.672   6.867   51.087
C   -35.608   5.791   49.315
C   -34.617   5.502   51.143
N   -35.158   4.752   50.126
H   -34.356   7.49   51.707
H   -36.084   5.674   48.433
H   -34.16   5.022   51.962
N   -36.654   11.359   50.069
C   -36.685   12.663   50.819
C   -38.093   13.087   51.378
O   -38.208   13.466   52.544
C   -35.974   13.796   49.985
C   -36.588   14.022   48.566
C   -34.439   13.575   49.937
C   -35.994   15.142   47.704
H   -36.381   11.313   49.062
H   -36.092   12.528   51.629
H   -36.072   14.651   50.498
H   -36.514   13.151   48.059
H   -37.575   14.205   48.69
H   -34.014   14.378   49.536
H   -34.108   13.438   50.864
H   -34.25   12.773   49.382
H   -35.028   14.952   47.552
H   -36.479   15.17   46.835
H   -36.101   16.008   48.184
N   -39.159   12.971   50.57
C   -40.575   13.036   51.048
C   -41.02   11.843   51.976
O   -41.667   12.064   53.0
C   -41.458   13.158   49.762
O   -41.213   14.39   49.094
C   -42.972   13.098   49.984
H   -38.922   12.829   49.563
H   -40.689   13.892   51.58
H   -41.209   12.389   49.134
H   -43.444   13.442   49.171
H   -43.249   12.151   50.152
H   -43.217   13.661   50.774
H   -40.235   14.627   49.134
N   -40.732   10.595   51.568
C   -41.287   9.335   52.122
C   -42.741   9.04   51.613
O   -43.716   9.079   52.367
C   -41.032   9.142   53.632
C   -39.568   9.092   54.068
H   -40.03   10.579   50.765
H   -40.712   8.583   51.783
H   -41.481   9.9   54.123
H   -41.475   8.28   53.914
O   -38.908   8.063   54.002
N   -39.012   10.191   54.502
H   -39.567   11.039   54.542
H   -38.06   10.213   54.793
N   -42.867   8.733   50.308
C   -44.164   8.424   49.654
C   -44.018   7.213   48.683
O   -43.198   7.239   47.763
C   -44.63   9.689   48.905
H   -41.962   8.73   49.783
H   -44.829   8.179   50.36
H   -44.041   10.452   49.159
H   -44.57   9.526   47.924
H   -45.573   9.887   49.159
N   -44.83   6.165   48.863
C   -44.897   5.028   47.897
C   -45.841   5.314   46.687
O   -46.916   5.899   46.864
C   -45.44   3.808   48.671
O   -44.667   3.466   49.823
H   -45.409   6.201   49.722
H   -43.971   4.884   47.529
H   -46.379   4.009   48.963
H   -45.456   3.019   48.05
H   -44.479   4.292   50.348
N   -45.488   4.87   45.464
C   -46.46   4.844   44.343
C   -46.212   3.675   43.337
O   -45.223   2.937   43.378
C   -46.656   6.259   43.715
C   -45.502   6.757   42.814
C   -45.795   8.022   42.005
H   -44.512   4.559   45.377
H   -47.38   4.708   44.736
H   -47.493   6.244   43.162
H   -46.77   6.921   44.461
H   -44.702   6.933   43.401
H   -45.265   6.016   42.173
O   -45.293   9.108   42.265
N   -46.604   7.875   40.985
H   -46.862   8.677   40.4
H   -46.981   6.953   40.77
N   -47.151   3.545   42.398
C   -46.974   2.644   41.215
C   -46.822   3.386   39.836
O   -47.3   2.915   38.804
C   -48.01   1.486   41.329
C   -49.485   1.678   40.954
C   -50.249   2.863   40.981
C   -50.388   0.661   40.684
N   -51.607   2.611   40.726
C   -51.672   1.241   40.547
C   -50.232   -0.752   40.65
C   -52.81   0.418   40.385
C   -51.368   -1.544   40.473
C   -52.637   -0.967   40.342
H   -48.006   4.108   42.544
H   -46.119   2.12   41.361
H   -47.675   0.704   40.761
H   -48.006   1.151   42.296
H   -49.868   3.765   41.159
H   -52.322   3.251   40.687
H   -49.338   -1.165   40.749
H   -53.721   0.834   40.304
H   -51.265   -2.532   40.441
H   -53.431   -1.553   40.215
N   -46.081   4.512   39.827
C   -45.72   5.283   38.615
C   -44.411   6.108   38.838
O   -44.009   6.468   39.947
C   -46.895   6.236   38.217
C   -47.279   6.219   36.732
C   -46.258   6.687   35.702
O   -45.34   5.906   35.374
O   -46.332   7.847   35.25
H   -45.767   4.81   40.79
H   -45.58   4.657   37.846
H   -47.683   5.952   38.735
H   -46.613   7.151   38.445
H   -47.527   5.273   36.494
H   -48.096   6.797   36.622
N   -43.789   6.489   37.732
C   -42.813   7.604   37.671
C   -43.31   9.002   38.229
O   -44.513   9.277   38.175
C   -42.509   7.611   36.141
C   -41.462   8.599   35.587
C   -41.374   8.469   34.045
N   -41.1   9.776   33.387
C   -39.915   10.273   33.072
N   -38.791   9.667   33.316
N   -39.883   11.428   32.494
H   -44.043   5.93   36.878
H   -41.985   7.343   38.208
H   -42.211   6.677   35.888
H   -43.382   7.791   35.66
H   -41.735   9.521   35.798
H   -40.576   8.382   35.959
H   -40.638   7.84   33.835
H   -42.243   8.119   33.721
H   -41.922   10.341   33.159
H   -38.802   8.754   33.754
H   -37.914   10.083   33.079
H   -40.709   11.946   32.26
H   -38.984   11.853   32.253
N   -42.433   9.967   38.654
C   -42.844   11.402   38.854
C   -43.401   12.225   37.62
O   -43.401   13.46   37.646
C   -41.54   12.051   39.403
C   -40.432   11.013   39.29
C   -41.067   9.649   39.093
H   -43.523   11.462   39.632
H   -41.307   12.873   38.867
H   -41.666   12.329   40.364
H   -39.826   11.243   38.511
H   -39.864   11.027   40.129
H   -40.582   9.124   38.394
H   -41.08   9.131   39.949
N   -43.837   11.562   36.533
C   -44.248   12.188   35.242
C   -43.073   12.858   34.448
O   -42.573   12.264   33.49
C   -45.553   13.016   35.379
O   -46.099   13.323   34.095
H   -43.868   10.513   36.669
H   -44.628   11.458   34.653
H   -46.211   12.482   35.892
H   -45.339   13.861   35.851
H   -45.401   13.174   33.398
N   -42.604   14.055   34.852
C   -41.39   14.714   34.275
C   -41.232   14.879   32.742
O   -40.197   14.494   32.193
H   -43.164   14.498   35.615
H   -41.301   15.656   34.716
H   -40.552   14.208   34.637
N   -42.241   15.444   32.067
C   -42.244   15.615   30.585
C   -42.903   16.988   30.216
O   -44.131   17.113   30.201
C   -42.973   14.41   29.914
C   -42.135   13.138   29.757
H   -43.037   15.76   32.663
H   -41.295   15.671   30.295
H   -43.779   14.193   30.471
H   -43.276   14.706   29.004
O   -42.05   12.282   30.631
N   -41.489   12.955   28.635
H   -41.558   13.66   27.91
H   -40.935   12.143   28.481
N   -42.082   18.003   29.902
C   -42.57   19.375   29.574
C   -43.328   19.528   28.208
O   -43.153   18.752   27.26
C   -41.34   20.317   29.639
O   -40.979   20.598   30.993
H   -41.071   17.758   29.905
H   -43.22   19.654   30.308
H   -40.578   19.871   29.186
H   -41.571   21.167   29.183
H   -41.464   21.414   31.298
N   -44.192   20.551   28.116
C   -44.919   20.918   26.862
C   -45.201   22.455   26.757
O   -44.742   23.096   25.807
C   -46.188   20.043   26.706
O   -45.832   18.686   26.431
H   -44.322   21.084   29.006
H   -44.334   20.667   26.084
H   -46.701   20.078   27.552
H   -46.723   20.396   25.951
H   -44.868   18.551   26.645
N   -45.934   23.054   27.713
C   -45.998   24.538   27.88
C   -45.616   24.923   29.351
O   -46.48   25.259   30.171
C   -47.395   25.04   27.428
O   -48.427   24.644   28.336
H   -46.456   22.401   28.331
H   -45.317   24.943   27.28
H   -47.371   26.034   27.379
H   -47.591   24.657   26.53
H   -48.628   23.677   28.2
N   -44.324   24.796   29.686
C   -43.922   24.38   31.056
C   -43.461   22.913   31.073
O   -42.366   22.631   31.602
O   -44.182   22.031   30.555
H   -43.65   25.004   28.938
H   -43.173   24.968   31.369
H   -44.704   24.49   31.673
H   -44.3119   -1.87831   41.8026
