233
4.xyz
C              14.546              29.752              -3.77               
O              15.443              29.319              -4.493              
N              14.75               30.683              -2.845              
C              16.069              31.262              -2.618              
C              17.046              30.206              -2.112              
O              18.232              30.227              -2.442              
C              15.977              32.387              -1.591              
S              15.122              33.893              -2.157              
H              13.904              30.957              -2.308              
H              16.416              31.613              -3.495              
H              15.49               32.04               -0.787              
H              16.908              32.644              -1.323              
N              16.536              29.288              -1.303              
C              17.358              28.227              -0.743              
C              16.531              27.415              0.246               
S              17.487              26.421              1.427               
H              15.521              29.391              -1.109              
H              18.147              28.642              -0.287              
H              15.955              28.048              0.768               
H              15.94               26.793              -0.275              
C              12.481              11.583              15.377              
C              11.456              12.229              16.296              
O              11.622              13.369              16.735              
C              13.889              12.138              15.684              
C              14.242              11.901              17.145              
C              14.914              11.455              14.793              
H              12.417              10.607              15.483              
H              13.861              13.122              15.546              
H              14.252              12.774              17.632              
H              13.561              11.297              17.56               
H              15.145              11.476              17.206              
H              15.475              10.839              15.346              
H              14.44               10.932              14.084              
H              15.496              12.148              14.367              
N              10.38               11.492              16.554              
C              9.285               11.971              17.389              
C              8.705               13.275              16.854              
O              8.463               14.211              17.611              
C              9.758               12.166              18.828              
C              9.238               11.092              19.756              
H              10.387              10.547              16.11               
H              8.551               11.281              17.343              
H              10.754              12.142              18.838              
H              9.432               13.051              19.149              
O              9.399               9.898               19.496              
N              8.607               11.51               20.848              
H              8.493               12.49               21.015              
H              8.245               10.847              21.503              
N              8.476               13.335              15.547              
C              7.929               14.547              14.963              
C              8.983               15.427              14.314              
O              8.727               16.055              13.289              
H              8.71                12.488              15.015              
H              7.229               14.299              14.268              
H              7.448               15.08               15.684              
N              10.171              15.483              14.907              
C              11.247              16.294              14.349              
C              11.765              15.673              13.056              
O              11.901              14.455              12.957              
C              12.385              16.423              15.356              
H              10.261              14.921              15.768              
H              10.89               17.211              14.143              
H              12.194              17.181              15.978              
H              12.465              15.575              15.878              
H              13.241              16.597              14.87               
N              12.043              16.517              12.066              
C              12.563              16.056              10.782              
C              14.083              15.994              10.874              
O              14.73               16.965              11.269              
C              12.174              17.027              9.639               
C              10.65               17.095              9.512               
C              12.798              16.57               8.319               
C              10.16               18.098              8.481               
H              11.861              17.517              12.283              
H              12.245              15.119              10.67               
H              12.505              17.928              9.882               
H              10.312              16.188              9.266               
H              10.272              17.345              10.403              
H              12.559              17.218              7.6                 
H              13.789              16.531              8.419               
H              12.449              15.666              8.085               
H              10.522              17.85               7.585               
H              9.162               18.083              8.457               
H              10.478              19.01               8.733               
N              14.654              14.848              10.52               
C              16.098              14.682              10.569              
C              16.605              14.209              9.214               
O              16.272              13.117              8.763               
C              16.51               13.655              11.644              
C              18.023              13.544              11.703              
C              15.953              14.073              13                  
H              13.999              14.107              10.216              
H              16.512              15.575              10.76               
H              16.162              12.769              11.362              
H              18.429              14.458              11.664              
H              18.294              13.097              12.556              
H              18.351              13.003              10.928              
H              15.062              13.641              13.137              
H              16.583              13.781              13.719              
H              15.853              15.067              13.022              
N              17.398              15.051              8.563               
C              17.956              14.711              7.268               
C              19.09               13.717              7.469               
O              19.975              13.933              8.295               
C              18.476              15.967              6.569               
S              17.178              17.151              6.087               
H              17.577              15.949              9.051               
H              17.247              14.267              6.721               
H              19.104              16.433              7.188               
H              18.96               15.688              5.742               
N              19.057              12.62               6.721               
C              20.089              11.601              6.833               
C              21.221              11.879              5.851               
O              21.024              12.538              4.831               
C              19.473              10.216              6.61                
C              18.49               9.857               7.725               
C              17.711              8.587               7.472               
O              16.941              8.546               6.489               
O              17.861              7.632               8.263               
H              18.254              12.557              6.07                
H              20.455              11.588              7.77                
H              18.975              10.24               5.775               
H              20.191              9.561               6.628               
H              19.007              9.733               8.557               
H              17.841              10.597              7.809               
N              22.408              11.383              6.175               
C              23.591              11.598              5.352               
C              24.811              10.981              6.046               
C              26.131              11.238              5.342               
C              27.286              10.564              6.067               
C              28.614              10.896              5.404               
N              28.903              12.362              5.424               
H              22.421              10.832              7.06                
H              23.773              12.602              5.298               
H              24.866              11.36               6.969               
H              24.668              9.992               6.1                 
H              26.081              10.878              4.41                
H              26.3                12.223              5.31                
H              27.31               10.888              7.005               
H              27.155              9.581               6.039               
H              29.35               10.411              5.886               
H              28.591              10.581              4.451               
H              28.852              12.72               4.493               
H              28.229              12.822              5.999               
H              29.819              12.511              5.793               
C              18.232              20.043              -0.584              
C              17.28               19.68               0.553               
O              16.264              20.339              0.759               
C              18.026              19.045              -1.741              
C              18.816              19.502              -2.968              
C              16.529              18.923              -2.065              
C              18.975              18.411              -4.026              
H              18.055              20.995              -0.809              
H              18.383              18.166              -1.453              
H              18.348              20.278              -3.379              
H              19.723              19.787              -2.672              
H              16.406              18.256              -2.795              
H              16.042              18.625              -1.249              
H              16.185              19.811              -2.358              
H              18.072              18.125              -4.335              
H              19.497              18.777              -4.792              
H              19.458              17.638              -3.624              
N              17.62               18.642              1.305               
C              16.774              18.219              2.412               
C              16.591              19.346              3.437               
O              15.479              19.568              3.933               
C              17.374              16.983              3.086               
S              16.365              16.297              4.437               
H              18.505              18.178              1.046               
H              15.865              17.984              2.048               
H              17.487              16.274              2.394               
H              18.264              17.234              3.462               
N              17.668              20.063              3.752               
C              17.559              21.151              4.721               
C              16.661              22.267              4.203               
O              15.953              22.909              4.982               
C              18.935              21.726              5.068               
C              19.815              20.81               5.922               
C              19.195              20.456              7.262               
O              18.409              21.267              7.8                 
O              19.514              19.369              7.79                
H              18.536              19.796              3.277               
H              17.186              20.795              5.588               
H              19.415              21.89               4.223               
H              18.795              22.558              5.577               
H              19.953              19.972              5.425               
H              20.662              21.279              6.099               
N              16.709              22.523              2.897               
C              15.858              23.553              2.313               
C              16.172              23.76               0.837               
S              17.71               24.65               0.467               
H              17.375              21.95               2.359               
H              15.983              24.4                2.835               
H              16.222              22.856              0.398               
H              15.41               24.272              0.424               
C              16.05               39.951              -3.898              
C              16.23               38.993              -2.723              
O              15.826              39.285              -1.599              
C              17.262              40.888              -4.015              
C              18.527              40.186              -4.493              
C              19.623              41.162              -4.903              
C              20.211              41.892              -3.708              
N              21.375              42.734              -4.105              
H              15.995              39.411              -4.746              
H              17.037              41.606              -4.665              
H              17.439              41.278              -3.117              
H              18.875              39.603              -3.752              
H              18.3                39.605              -5.281              
H              20.351              40.654              -5.356              
H              19.236              41.835              -5.528              
H              19.506              42.477              -3.303              
H              20.51               41.219              -3.029              
H              22.16               42.505              -3.531              
H              21.598              42.559              -5.063              
H              21.142              43.698              -3.985              
N              16.822              37.837              -2.995              
C              17.059              36.84               -1.96               
C              18.048              37.34               -0.916              
O              17.8                37.119              0.29                
C              17.596              35.557              -2.581              
S              16.385              34.627              -3.565              
O              19.072              37.924              -1.325              
H              17.095              37.708              -3.988              
H              16.183              36.651              -1.496              
H              18.363              35.793              -3.177              
H              17.917              34.962              -1.844              
H              13.5493             29.3877             -3.85934            
H              15.162              40.5166             -3.78954            
H              17.73               27.5872             -1.55017            
H              19.2234             20.0015             -0.20768            
H              14.8067             23.2586             2.38912             
H              23.5091             11.2073             4.33011             
H              12.1593             11.8385             14.4009             
