261

C   6.0   27.203   7.41
O   5.192   27.999   7.892
N   5.633   26.232   6.574
C   4.229   26.056   6.208
C   3.402   25.747   7.46
O   2.311   26.286   7.649
C   4.056   24.907   5.205
C   4.59   25.202   3.832
C   4.497   26.478   3.29
C   5.136   24.182   3.057
C   4.941   26.737   1.993
C   5.581   24.428   1.763
C   5.481   25.707   1.23
H   6.399   25.639   6.222
H   3.903   26.936   5.859
H   4.541   24.122   5.562
H   3.087   24.722   5.125
H   4.111   27.221   3.828
H   5.209   23.26   3.438
H   4.866   27.666   1.619
H   5.974   23.674   1.216
H   5.796   25.891   0.3
N   3.935   24.871   8.305
C   3.276   24.47   9.546
C   3.065   25.655   10.487
O   2.003   25.796   11.093
C   4.127   23.408   10.254
C   3.574   22.901   11.578
C   2.314   22.089   11.369
N   1.134   22.816   11.81
C   0.765   22.939   13.08
N   1.48   22.371   14.04
N   -0.308   23.65   13.388
H   4.863   24.494   8.008
H   2.374   24.074   9.321
H   4.22   22.625   9.637
H   5.032   23.801   10.427
H   4.253   22.321   12.019
H   3.354   23.677   12.162
H   2.233   21.885   10.398
H   2.398   21.246   11.892
H   0.559   23.255   11.109
H   2.312   21.862   13.833
H   1.18   22.454   14.999
H   -0.828   24.11   12.664
H   -0.603   23.732   14.339
N   4.08   26.504   10.605
C   4.007   27.65   11.496
C   3.013   28.701   11.021
O   2.516   29.502   11.817
C   5.398   28.281   11.654
C   5.514   29.238   12.833
C   6.957   29.574   13.189
H   4.907   26.281   10.02
H   3.696   27.321   12.404
H   6.068   27.549   11.78
H   5.615   28.788   10.818
H   5.039   30.088   12.605
H   5.08   28.819   13.631
O   7.225   30.164   14.235
N   7.889   29.199   12.323
H   8.868   29.402   12.488
H   7.603   28.698   11.481
N   2.7   28.684   9.731
C   1.785   29.668   9.172
C   0.459   29.14   8.648
O   -0.213   29.818   7.873
C   2.5   30.442   8.069
C   3.614   31.303   8.61
H   3.149   27.935   9.178
H   1.563   30.33   9.927
H   2.884   29.788   7.424
H   1.835   31.026   7.613
O   3.37   32.25   9.354
N   4.849   30.973   8.252
H   4.999   30.189   7.646
H   5.628   31.503   8.583
N   0.072   27.943   9.071
C   -1.193   27.372   8.619
C   -2.394   28.234   8.993
O   -3.393   28.253   8.275
C   -1.393   25.971   9.199
C   -0.964   24.786   8.335
C   -1.267   23.49   9.068
C   -1.704   24.827   7.009
H   0.717   27.471   9.721
H   -1.164   27.288   7.61
H   -0.874   25.918   10.054
H   -2.368   25.859   9.396
H   0.014   24.849   8.16
H   -2.249   23.43   9.252
H   -0.987   22.712   8.504
H   -0.766   23.469   9.934
H   -1.49   25.68   6.531
H   -1.423   24.05   6.443
H   -2.69   24.777   7.173
N   -2.293   28.946   10.111
C   -3.389   29.79   10.579
C   -3.723   30.974   9.679
O   -4.79   31.572   9.815
C   -3.112   30.302   11.999
C   -1.803   31.071   12.111
H   -1.389   28.852   10.61
H   -4.223   29.201   10.614
H   -3.858   30.907   12.266
H   -3.072   29.517   12.613
O   -1.509   31.657   13.156
N   -1.007   31.066   11.045
H   -1.295   30.571   10.221
H   -0.137   31.548   11.064
N   -2.825   31.326   8.766
C   -3.095   32.449   7.88
C   -3.228   32.027   6.422
O   -3.38   32.867   5.538
C   -2.015   33.547   8.006
O   -0.722   32.994   7.74
C   -2.034   34.144   9.409
H   -1.967   30.763   8.743
H   -3.968   32.88   8.165
H   -2.203   34.271   7.31
H   -2.931   34.553   9.591
H   -1.856   33.426   10.085
H   -1.328   34.851   9.486
H   -0.743   31.993   7.833
N   -3.168   30.723   6.174
C   -3.312   30.207   4.819
C   -4.687   30.653   4.323
O   -5.677   30.523   5.045
C   -3.207   28.678   4.831
C   -3.347   28.039   3.468
C   -4.597   27.895   2.87
C   -2.226   27.596   2.768
C   -4.73   27.327   1.607
C   -2.345   27.029   1.504
C   -3.601   26.897   0.929
O   -3.726   26.338   -0.319
H   -3.014   30.124   7.004
H   -2.625   30.628   4.243
H   -2.315   28.43   5.203
H   -3.93   28.321   5.418
H   -5.416   28.204   3.356
H   -1.322   27.688   3.181
H   -5.635   27.232   1.192
H   -1.533   26.719   1.013
H   -2.817   26.192   -0.707
N   -4.75   31.184   3.105
C   -6.013   31.672   2.553
C   -6.316   31.15   1.149
O   -5.456   31.169   0.271
C   -6.004   33.205   2.542
O   -7.158   33.729   1.907
H   -3.85   31.221   2.595
H   -6.762   31.36   3.166
H   -5.975   33.531   3.484
H   -5.194   33.516   2.05
H   -7.816   32.993   1.751
N   -7.55   30.695   0.941
C   -7.961   30.166   -0.356
C   -7.998   31.234   -1.443
O   -7.989   30.911   -2.629
C   -9.345   29.507   -0.265
C   -9.415   28.305   0.665
C   -10.588   27.393   0.313
C   -11.547   27.205   1.485
N   -12.558   28.295   1.563
H   -8.179   30.749   1.764
H   -7.305   29.444   -0.635
H   -9.994   30.195   0.06
H   -9.607   29.211   -1.184
H   -8.567   27.781   0.588
H   -9.527   28.623   1.605
H   -11.092   27.798   -0.446
H   -10.233   26.5   0.049
H   -12.018   26.324   1.379
H   -11.016   27.186   2.337
H   -12.714   28.668   0.649
H   -13.414   27.928   1.926
H   -12.221   29.017   2.167
N   -8.043   32.501   -1.047
C   -8.092   33.579   -2.028
C   -6.768   33.743   -2.765
O   -6.685   34.487   -3.741
C   -8.481   34.904   -1.368
C   -7.385   35.557   -0.547
C   -7.834   36.923   -0.053
C   -6.724   37.634   0.702
N   -7.136   39.006   1.122
H   -8.04   32.648   -0.028
H   -8.815   33.371   -2.705
H   -8.756   35.542   -2.091
H   -9.266   34.732   -0.768
H   -7.178   34.982   0.24
H   -6.573   35.669   -1.113
H   -8.092   37.479   -0.836
H   -8.61   36.806   0.559
H   -6.488   37.099   1.517
H   -5.917   37.702   0.111
H   -6.323   39.535   1.361
H   -7.617   39.451   0.368
H   -7.74   38.94   1.915
N   -5.731   33.057   -2.293
C   -4.429   33.13   -2.943
C   -4.168   31.911   -3.819
O   -3.138   31.825   -4.481
C   -3.314   33.301   -1.906
C   -3.298   34.684   -1.299
C   -3.264   35.817   -2.112
C   -3.342   34.866   0.082
C   -3.277   37.098   -1.567
C   -3.354   36.147   0.638
C   -3.323   37.254   -0.192
O   -3.343   38.518   0.347
H   -5.925   32.488   -1.453
H   -4.415   33.949   -3.534
H   -3.46   32.642   -1.181
H   -2.445   33.147   -2.356
H   -3.229   35.709   -3.107
H   -3.366   34.073   0.683
H   -3.254   37.898   -2.166
H   -3.384   36.26   1.63
H   -2.432   38.745   0.687
N   -5.11   30.973   -3.826
C   -4.984   29.782   -4.659
C   -5.251   30.218   -6.1
O   -6.11   31.067   -6.342
C   -6.005   28.718   -4.239
C   -5.798   28.17   -2.833
S   -7.038   26.938   -2.36
C   -6.357   25.476   -3.108
H   -5.918   31.157   -3.206
H   -4.05   29.457   -4.605
H   -6.931   29.116   -4.292
H   -5.959   27.948   -4.89
H   -4.853   27.772   -2.776
H   -5.801   28.957   -2.173
H   -5.632   25.099   -2.525
H   -7.075   24.785   -3.224
H   -5.97   25.699   -4.007
N   -4.518   29.641   -7.049
C   -4.669   29.985   -8.464
C   -4.518   31.489   -8.676
O   -5.185   32.082   -9.526
C   -6.04   29.526   -8.985
C   -6.3   28.017   -8.945
C   -7.706   27.71   -9.446
C   -5.267   27.308   -9.801
H   -3.838   28.934   -6.704
H   -3.948   29.517   -8.985
H   -6.738   29.963   -8.427
H   -6.118   29.817   -9.931
H   -6.206   27.696   -8.005
H   -7.802   28.033   -10.387
H   -7.863   26.723   -9.415
H   -8.375   28.172   -8.865
H   -4.349   27.498   -9.448
H   -5.432   26.32   -9.779
H   -5.332   27.633   -10.746
N   -3.628   32.102   -7.905
H   -3.119   31.479   -7.247
H   -3.46841   33.0991   -7.96467
H   7.0414   27.2728   7.6543
