304

N   23.348   -1.437   21.726
C   22.978   -0.329   20.797
C   23.992   0.814   20.876
O   24.874   0.99   20.039
C   21.596   0.211   21.183
C   21.153   1.524   20.549
C   19.818   2.007   21.079
C   19.736   2.115   22.582
N   20.52   3.235   23.19
H   22.532   -1.746   22.207
H   22.968   -0.695   19.863
H   20.91   -0.496   20.948
H   21.579   0.328   22.189
H   21.85   2.224   20.735
H   21.083   1.397   19.554
H   19.625   2.916   20.681
H   19.098   1.372   20.764
H   18.759   2.222   22.853
H   20.054   1.239   22.995
H   21.483   3.131   22.946
H   20.175   4.104   22.84
H   20.418   3.206   24.183
H   23.735   -2.189   21.199
H   24.02   -1.102   22.381
N   23.841   1.587   21.928
C   24.658   2.752   22.236
C   24.733   2.758   23.759
O   23.687   2.468   24.361
C   23.838   3.946   21.765
C   24.54   5.219   21.445
C   23.611   6.282   20.856
O   22.381   6.196   21.079
O   24.159   7.208   20.202
H   23.042   1.284   22.564
H   25.556   2.647   21.86
H   23.34   3.651   20.939
H   23.16   4.139   22.486
H   24.918   5.6   22.272
H   25.238   5.047   20.77
N   25.875   2.996   24.387
C   25.869   2.985   25.858
C   25.104   4.207   26.361
O   24.809   5.128   25.59
C   27.277   3.025   26.446
O   27.91   4.213   25.949
C   28.11   1.82   26.028
H   26.689   3.172   23.815
H   25.393   2.164   26.165
H   27.216   3.099   27.454
H   28.761   2.089   25.315
H   28.615   1.467   26.818
H   27.51   1.1   25.672
H   27.411   4.566   25.151
N   24.757   4.23   27.656
C   24.022   5.378   28.185
C   24.908   6.629   28.074
O   24.409   7.72   27.773
C   23.667   5.162   29.643
H   25.039   3.417   28.205
H   23.202   5.522   27.635
H   23.196   4.286   29.749
H   24.501   5.157   30.196
H   23.067   5.899   29.957
N   26.217   6.475   28.316
C   27.083   7.657   28.251
C   27.228   8.192   26.838
O   27.326   9.408   26.623
C   28.461   7.385   28.82
H   26.528   5.536   28.532
H   26.679   8.381   28.834
H   28.543   7.808   29.723
H   28.603   6.398   28.904
H   29.158   7.767   28.213
N   27.31   7.299   25.838
C   27.467   7.72   24.439
C   26.194   8.368   23.923
O   26.312   9.288   23.105
C   27.828   6.549   23.537
H   27.254   6.31   26.135
H   28.217   8.39   24.39
H   27.326   6.623   22.675
H   28.81   6.56   23.351
H   27.585   5.691   23.989
N   25.016   7.941   24.38
C   23.749   8.51   23.975
C   23.595   9.948   24.452
O   23.116   10.834   23.739
C   22.607   7.669   24.537
C   21.236   8.169   24.079
C   20.192   7.157   24.498
C   18.781   7.669   24.289
N   17.833   7.015   25.269
H   25.094   7.147   25.067
H   23.689   8.5   22.964
H   22.717   6.736   24.222
H   22.639   7.715   25.527
H   21.048   9.035   24.516
H   21.237   8.253   23.095
H   20.312   6.325   23.957
H   20.313   6.947   25.467
H   18.759   8.654   24.435
H   18.481   7.452   23.365
H   17.572   7.685   25.957
H   17.029   6.7   24.774
H   18.297   6.245   25.697
N   24.038   10.215   25.668
C   24.018   11.545   26.27
C   24.967   12.449   25.472
O   24.645   13.62   25.217
C   24.494   11.505   27.721
C   24.639   12.847   28.368
C   25.823   13.546   28.283
C   23.582   13.415   29.042
C   25.984   14.802   28.852
C   23.713   14.677   29.624
C   24.908   15.37   29.526
H   24.415   9.373   26.18
H   23.102   11.912   26.143
H   23.83   10.982   28.242
H   25.381   11.058   27.736
H   26.604   13.14   27.792
H   22.713   12.929   29.119
H   26.855   15.281   28.777
H   22.924   15.078   30.12
H   25.003   16.276   29.936
N   26.161   11.971   25.132
C   27.08   12.801   24.367
C   26.496   13.165   23.001
O   26.575   14.347   22.602
C   28.402   12.057   24.125
C   29.262   11.92   25.348
C   30.361   10.88   25.282
O   30.457   10.022   24.393
O   31.175   10.926   26.237
H   26.363   11.015   25.442
H   27.282   13.647   24.878
H   28.173   11.153   23.806
H   28.905   12.568   23.449
H   29.702   12.8   25.525
H   28.677   11.678   26.122
N   25.915   12.227   22.262
C   25.344   12.477   20.954
C   24.153   13.449   21.046
O   24.068   14.358   20.196
C   24.809   11.198   20.333
C   24.084   11.374   19.013
C   23.674   10.05   18.424
N   22.781   9.22   19.209
C   21.478   9.362   19.346
N   20.819   10.345   18.731
N   20.792   8.549   20.131
H   25.906   11.276   22.716
H   26.042   12.894   20.36
H   25.58   10.575   20.181
H   24.171   10.776   20.98
H   23.263   11.924   19.157
H   24.687   11.835   18.364
H   23.239   10.233   17.518
H   24.526   9.52   18.227
H   23.211   8.432   19.716
H   21.309   10.98   18.137
H   19.833   10.443   18.866
H   21.27   7.805   20.61
H   19.809   8.667   20.249
N   23.27   13.261   22.04
C   22.112   14.142   22.177
C   22.361   15.507   22.785
O   21.626   16.45   22.478
C   21.121   13.494   23.151
C   20.464   12.233   22.621
C   19.273   11.886   23.484
H   23.477   12.474   22.667
H   21.725   14.287   21.233
H   21.609   13.262   23.995
H   20.4   14.159   23.362
H   20.154   12.397   21.698
H   21.115   11.492   22.659
O   18.154   11.823   22.994
N   19.437   11.716   24.779
H   18.683   11.499   25.4
H   20.394   11.813   25.163
N   23.372   15.7   23.648
C   23.559   16.99   24.308
C   24.862   17.701   24.197
O   24.914   18.883   24.589
C   23.277   16.763   25.832
C   21.902   16.223   26.08
H   23.981   14.881   23.795
H   22.806   17.625   23.949
H   23.949   16.115   26.179
H   23.372   17.638   26.298
N   20.76   16.962   25.89
C   21.469   14.984   26.472
C   19.694   16.229   26.165
N   20.107   15.024   26.512
H   20.737   17.92   25.586
H   22.053   14.206   26.686
H   18.749   16.532   26.12
N   25.961   17.115   23.713
C   27.202   17.877   23.654
C   27.53   18.547   22.34
O   27.438   17.956   21.248
C   28.383   16.933   23.968
C   28.265   16.308   25.361
S   28.603   17.507   26.669
C   29.909   18.485   25.93
H   25.855   16.148   23.409
H   27.149   18.611   24.378
H   28.4   16.2   23.291
H   29.233   17.454   23.925
H   27.327   15.917   25.459
H   28.91   15.519   25.416
H   29.51   19.179   25.329
H   30.44   18.935   26.65
H   30.512   17.891   25.396
N   27.943   19.809   22.412
C   28.36   20.531   21.209
C   29.528   21.418   21.641
O   29.427   22.628   21.673
C   27.336   21.361   20.49
C   27.861   21.952   19.182
O   28.924   21.52   18.718
O   27.234   22.878   18.646
H   27.944   20.221   23.357
H   28.72   19.865   20.575
H   26.55   20.789   20.275
H   27.059   22.115   21.079
N   30.624   20.781   22.0
C   31.809   21.514   22.451
C   32.541   22.213   21.327
O   33.466   22.998   21.556
C   32.747   20.56   23.197
O   32.455   19.19   22.929
H   30.583   19.749   21.94
H   31.5   22.22   23.114
H   33.688   20.748   22.916
H   32.654   20.72   24.18
H   31.472   19.041   23.013
N   32.16   21.986   20.085
C   32.797   22.566   18.914
C   32.468   24.032   18.712
O   33.263   24.76   18.091
C   32.363   21.793   17.653
O   32.508   20.372   17.868
H   31.332   21.331   20.008
H   33.805   22.486   19.035
H   31.413   21.988   17.467
H   32.943   22.058   16.898
H   31.672   20.024   18.279
N   31.346   24.521   19.189
C   30.946   25.919   19.039
C   30.848   26.499   20.451
O   30.539   25.783   21.412
C   29.532   26.061   18.457
O   28.646   25.231   19.241
C   29.404   25.555   17.031
H   30.747   23.819   19.696
H   31.656   26.404   18.55
H   29.227   27.022   18.554
H   28.446   25.334   16.832
H   29.717   26.259   16.389
H   29.962   24.73   16.91
H   29.18   24.599   19.809
N   31.087   27.789   20.588
C   31.008   28.392   21.915
C   29.597   28.858   22.229
O   29.292   29.136   23.393
C   32.003   29.546   22.013
O   31.435   30.631   21.288
H   31.319   28.302   19.734
H   31.262   27.688   22.592
H   32.106   29.803   22.95
H   32.844   29.282   21.59
H   30.926   30.275   20.507
N   28.738   28.892   21.222
C   27.35   29.295   21.399
C   26.569   29.114   20.098
O   27.208   28.971   19.065
C   27.264   30.762   21.785
H   29.136   28.608   20.3
H   26.929   28.717   22.106
H   26.743   30.856   22.634
H   28.185   31.128   21.919
H   26.807   31.274   21.058
N   25.24   29.085   20.189
C   24.416   28.966   18.993
C   24.655   30.267   18.202
O   24.642   31.404   18.686
C   22.952   28.818   19.294
H   24.863   29.152   21.146
H   24.733   28.21   18.449
H   22.412   29.377   18.66
H   22.676   27.859   19.196
H   22.762   29.116   20.233
N   24.931   30.085   16.927
C   25.223   31.08   15.92
C   25.715   30.216   14.691
O   24.842   29.056   14.626
H   24.921   29.026   16.666
H   25.899   31.746   16.321
H   25.607   30.743   13.886
H   26.621   29.924   14.869
H   24.008   29.315   14.153
H   24.3749   31.6595   15.5494
