366

C   -14.481   51.15   -8.516
O   -14.891   52.012   -9.319
N   -15.045   50.013   -8.279
C   -16.13   49.331   -8.938
C   -17.358   50.214   -9.1
O   -17.657   50.629   -10.211
C   -16.527   48.057   -8.19
C   -16.292   46.849   -9.077
C   -17.578   46.34   -9.712
C   -17.266   45.576   -11.007
N   -18.429   44.756   -11.429
H   -14.567   49.519   -7.4
H   -15.826   49.034   -9.861
H   -15.963   47.977   -7.392
H   -17.483   48.109   -7.974
H   -15.649   47.098   -9.807
H   -15.89   46.111   -8.528
H   -18.026   45.72   -9.086
H   -18.157   47.108   -9.937
H   -17.046   46.238   -11.721
H   -16.479   44.983   -10.844
H   -18.928   44.444   -10.62
H   -19.035   45.307   -12.003
H   -18.108   43.964   -11.949
N   -18.073   50.445   -8.018
C   -19.308   51.242   -8.08
C   -19.019   52.695   -7.755
O   -19.859   53.569   -7.994
C   -20.34   50.65   -7.133
C   -20.722   49.213   -7.417
O   -19.926   48.293   -7.115
O   -21.83   49.015   -7.929
H   -17.709   50.034   -7.142
H   -19.631   51.205   -9.031
H   -19.971   50.703   -6.2
H   -21.168   51.216   -7.183
N   -17.814   52.969   -7.282
C   -17.492   54.22   -6.566
C   -15.999   54.322   -6.303
O   -15.308   53.292   -6.44
C   -18.263   54.265   -5.255
C   -17.652   53.314   -4.226
C   -18.119   53.73   -2.817
N   -17.284   53.05   -1.809
C   -17.507   53.263   -0.491
N   -17.999   54.428   -0.066
N   -17.224   52.276   0.365
H   -17.098   52.226   -7.454
H   -17.778   54.994   -7.139
H   -18.216   55.177   -4.891
H   -19.188   53.978   -5.421
H   -17.967   52.397   -4.391
H   -16.671   53.382   -4.252
H   -18.006   54.701   -2.735
H   -19.054   53.448   -2.713
H   -16.575   52.45   -2.089
H   -18.226   55.147   -0.717
H   -18.141   54.578   0.915
H   -16.878   51.403   0.034
H   -17.364   52.419   1.347
N   -15.462   55.477   -5.976
C   -14.008   55.536   -5.552
C   -14.029   55.45   -4.009
O   -14.384   56.443   -3.412
C   -13.502   56.969   -5.867
S   -13.528   57.274   -7.638
H   -16.053   56.302   -6.021
H   -13.568   54.738   -5.903
H   -14.105   57.603   -5.425
H   -12.578   57.036   -5.545
N   -13.639   54.38   -3.424
C   -13.351   54.27   -1.98
C   -12.36   55.348   -1.552
O   -11.286   55.419   -2.177
C   -12.658   52.892   -1.771
C   -13.205   52.153   -0.629
C   -12.566   50.861   -0.227
C   -12.639   50.789   1.318
N   -11.988   49.621   1.82
H   -13.528   53.536   -4.06
H   -14.208   54.395   -1.474
H   -12.789   52.375   -2.612
H   -11.689   53.078   -1.631
H   -13.212   52.775   0.207
H   -14.216   51.967   -0.796
H   -13.073   50.108   -0.584
H   -11.624   50.855   -0.481
H   -12.21   51.627   1.675
H   -13.614   50.799   1.571
H   -10.994   49.774   1.917
H   -12.353   49.365   2.726
H   -12.122   48.837   1.198
N   -12.614   56.11   -0.491
C   -11.753   57.249   -0.143
C   -10.411   56.804   0.385
O   -9.411   57.473   0.104
C   -12.578   57.924   0.939
C   -14.002   57.52   0.733
C   -13.954   56.143   0.075
H   -11.646   57.864   -0.941
H   -12.259   57.644   1.862
H   -12.483   58.934   0.887
H   -14.49   57.47   1.609
H   -14.476   58.174   0.136
H   -14.08   55.425   0.754
H   -14.651   56.067   -0.634
N   -10.383   55.782   1.233
C   -9.172   55.34   1.96
C   -9.137   53.814   1.992
O   -10.153   53.199   2.215
C   -9.285   55.832   3.428
C   -7.996   55.51   4.155
C   -9.584   57.331   3.636
H   -11.309   55.297   1.353
H   -8.377   55.661   1.451
H   -10.007   55.311   3.858
H   -7.622   56.343   4.565
H   -8.174   54.838   4.876
H   -7.33   55.133   3.51
H   -10.524   57.511   3.358
H   -9.462   57.551   4.6
H   -8.952   57.863   3.079
N   -7.997   53.219   1.704
C   -7.861   51.746   1.861
C   -8.267   51.139   0.502
C   -8.374   49.621   0.687
H   -7.235   53.82   1.375
H   -8.406   51.495   2.656
H   -9.141   51.486   0.255
H   -7.565   51.327   -0.144
O   -9.326   49.166   1.431
N   -7.435   48.814   0.288
H   -6.616   49.256   -0.152
H   -7.483   47.844   0.391
C   -9.418   65.936   -4.354
C   -9.751   66.149   -5.853
O   -10.902   66.535   -6.12
H   -10.204   65.51   -3.904
H   -9.237   66.825   -3.932
N   -8.847   65.846   -6.746
C   -9.011   65.863   -8.192
C   -9.951   64.776   -8.691
O   -10.344   64.75   -9.858
C   -7.736   65.874   -8.968
O   -6.565   65.393   -8.367
H   -7.905   65.563   -6.305
H   -9.408   66.759   -8.452
H   -7.878   65.345   -9.847
H   -7.551   66.842   -9.286
H   -6.772   64.579   -7.821
N   -10.217   63.814   -7.848
C   -10.621   62.466   -8.283
C   -12.126   62.451   -8.544
O   -12.925   63.193   -7.939
C   -10.161   61.423   -7.323
O   -10.628   60.09   -7.523
H   -10.123   64.067   -6.838
H   -10.155   62.269   -9.143
H   -9.135   61.39   -7.323
H   -10.425   61.698   -6.37
H   -11.414   60.106   -8.137
N   -12.522   61.688   -9.521
C   -13.817   61.779   -10.221
C   -14.205   60.363   -10.668
O   -13.566   59.818   -11.586
C   -13.614   62.621   -11.498
C   -14.954   62.886   -12.167
C   -14.896   62.604   -13.673
C   -15.731   63.632   -14.434
N   -17.088   63.756   -13.863
H   -11.806   60.944   -9.803
H   -14.502   62.114   -9.587
H   -13.215   63.478   -11.239
H   -13.047   62.109   -12.114
H   -15.648   62.294   -11.76
H   -15.207   63.843   -12.032
H   -13.958   62.673   -13.973
H   -15.267   61.705   -13.843
H   -15.265   64.518   -14.389
H   -15.795   63.345   -15.393
H   -17.19   63.121   -13.096
H   -17.233   64.692   -13.539
H   -17.77   63.54   -14.564
N   -15.206   59.805   -10.018
C   -15.555   58.388   -10.353
C   -16.152   58.388   -11.781
O   -17.035   59.258   -11.946
C   -16.698   57.938   -9.422
C   -17.172   56.58   -9.975
C   -16.229   55.558   -10.088
C   -18.491   56.406   -10.366
C   -16.602   54.306   -10.566
C   -18.873   55.145   -10.845
C   -17.934   54.119   -10.942
O   -18.318   52.907   -11.447
H   -15.689   60.355   -9.328
H   -14.719   57.864   -10.367
H   -16.344   57.796   -8.542
H   -17.424   58.561   -9.498
H   -15.283   55.724   -9.826
H   -19.139   57.132   -10.312
H   -15.948   53.57   -10.637
H   -19.821   54.983   -11.117
H   -17.982   52.178   -10.851
N   -15.695   57.579   -12.638
C   -15.149   56.224   -12.481
C   -13.617   56.275   -12.681
O   -12.968   55.24   -12.591
C   -15.757   55.571   -13.724
C   -15.984   56.664   -14.753
C   -16.008   57.976   -13.998
H   -15.372   55.846   -11.588
H   -15.136   54.864   -14.099
H   -16.634   55.116   -13.5
H   -15.242   56.655   -15.434
H   -16.856   56.509   -15.232
H   -15.322   58.608   -14.359
H   -16.912   58.404   -14.053
N   -13.159   57.492   -12.869
C   -11.782   57.939   -12.991
C   -11.15   58.174   -11.612
O   -10.577   59.269   -11.483
C   -11.735   59.322   -13.695
C   -12.247   59.186   -15.12
H   -13.973   58.218   -12.934
H   -11.259   57.196   -13.425
H   -12.319   59.935   -13.201
H   -10.801   59.621   -13.716
O   -13.098   60.074   -15.607
N   -11.821   58.154   -15.83
H   -11.185   57.499   -15.404
H   -12.121   58.022   -16.768
N   -11.29   57.277   -10.699
C   -10.604   57.274   -9.406
C   -9.098   57.388   -9.539
O   -8.44   56.691   -10.324
C   -10.965   55.95   -8.687
S   -12.739   55.774   -8.689
H   -11.972   56.495   -10.955
H   -10.937   58.071   -8.875
H   -10.568   55.22   -9.192
H   -10.649   56.016   -7.769
N   -8.547   58.312   -8.757
C   -7.137   58.579   -8.536
C   -6.735   58.644   -7.066
O   -7.399   59.236   -6.214
C   -6.764   59.887   -9.227
H   -9.305   58.904   -8.252
H   -6.591   57.841   -8.983
H   -5.815   60.116   -9.015
H   -6.87   59.783   -10.215
H   -7.364   60.617   -8.903
N   -5.561   58.099   -6.745
C   -5.129   57.834   -5.388
C   -3.709   58.355   -5.177
O   -2.842   58.277   -6.03
C   -5.192   56.346   -5.023
C   -6.655   55.894   -4.867
C   -7.332   55.97   -3.651
C   -7.32   55.359   -5.966
C   -8.682   55.603   -3.556
C   -8.655   55.005   -5.908
C   -9.355   55.166   -4.705
O   -10.65   54.779   -4.671
H   -4.962   57.873   -7.588
H   -5.735   58.325   -4.755
H   -4.792   55.824   -5.748
H   -4.744   56.211   -4.163
H   -6.857   56.288   -2.834
H   -6.814   55.228   -6.824
H   -9.157   55.653   -2.685
H   -9.123   54.638   -6.706
H   -11.037   54.966   -3.765
N   -3.489   58.852   -3.992
C   -2.109   59.175   -3.519
C   -1.562   57.985   -2.75
O   -2.293   57.457   -1.916
C   -2.247   60.415   -2.626
C   -0.95   60.818   -1.974
C   -1.182   61.893   -0.895
C   -0.019   61.877   0.101
N   1.234   62.282   -0.572
H   -4.323   59.01   -3.397
H   -1.54   59.345   -4.319
H   -2.569   61.166   -3.193
H   -2.914   60.208   -1.917
H   -0.531   60.024   -1.537
H   -0.329   61.194   -2.659
H   -1.214   62.774   -1.33
H   -2.014   61.684   -0.414
H   -0.225   62.513   0.84
H   0.077   60.953   0.463
H   1.166   63.237   -0.863
H   2.003   62.183   0.061
H   1.388   61.702   -1.373
N   -0.406   57.461   -3.064
C   0.267   56.322   -2.463
C   1.246   56.756   -1.384
O   2.193   57.44   -1.713
C   1.139   55.617   -3.548
O   0.214   55.159   -4.553
C   1.828   54.474   -2.899
H   0.066   57.993   -3.893
H   -0.429   55.725   -2.038
H   1.747   56.299   -3.96
H   2.787   54.706   -2.689
H   1.37   54.223   -2.035
H   1.826   53.665   -3.502
H   0.451   55.552   -5.446
N   1.018   56.297   -0.164
C   2.032   56.476   0.875
C   2.46   55.112   1.437
O   1.638   54.441   2.059
C   1.503   57.347   2.003
O   0.9   58.54   1.498
C   2.657   57.772   2.882
H   0.119   55.831   -0.017
H   2.837   56.911   0.467
H   0.783   56.826   2.522
H   3.425   58.084   2.316
H   2.373   58.523   3.486
H   2.963   57.0   3.447
H   0.102   58.316   0.927
N   3.733   54.778   1.269
C   4.424   53.625   1.831
C   5.111   53.947   3.15
O   5.882   54.898   3.21
C   5.397   53.013   0.83
C   6.349   51.981   1.492
C   5.602   50.666   1.776
H   4.255   55.479   0.637
H   3.734   52.906   2.01
H   4.89   52.537   0.123
H   5.963   53.728   0.437
H   7.089   51.796   0.869
H   6.669   52.355   2.345
O   4.691   50.213   0.927
N   5.965   49.946   2.813
H   5.507   49.09   3.055
H   6.75   50.283   3.391
N   4.869   53.227   4.219
C   5.41   53.41   5.563
C   5.585   52.057   6.244
O   5.042   51.067   5.727
C   4.488   54.279   6.408
H   4.179   52.415   4.018
H   6.308   53.853   5.494
H   3.689   54.541   5.868
H   4.192   53.767   7.214
H   4.977   55.101   6.698
N   6.317   52.08   7.327
C   6.323   51.013   8.342
C   7.74   50.561   8.675
C   8.246   49.698   7.45
H   6.922   52.94   7.429
H   5.874   50.215   7.916
H   8.324   51.328   8.744
H   7.728   49.98   9.448
O   8.599   48.456   7.638
N   8.304   50.245   6.274
H   8.024   51.222   6.183
H   8.609   49.747   5.474
H   -13.6148   51.358   -7.91992
H   -8.55618   65.3049   -4.24482
H   -6.82044   51.5126   2.08649
H   5.75712   51.2916   9.20446
