190

C   58.49   37.55   0.941
O   58.365   38.536   1.685
N   58.256   37.629   -0.36
C   57.821   38.881   -0.964
C   56.447   39.345   -0.451
O   56.211   40.536   -0.194
C   57.85   38.771   -2.498
C   57.2   39.95   -3.151
C   59.297   38.618   -3.013
H   58.404   36.755   -0.891
H   58.493   39.6   -0.724
H   57.321   37.957   -2.748
H   57.184   39.829   -4.148
H   56.256   40.052   -2.823
H   57.708   40.789   -2.936
H   59.743   37.889   -2.5
H   59.268   38.39   -3.982
H   59.778   39.48   -2.876
N   55.55   38.397   -0.231
C   54.236   38.656   0.3
C   54.409   39.265   1.691
O   53.656   40.194   2.038
C   53.399   37.37   0.304
C   51.989   37.567   0.72
H   55.886   37.429   -0.481
H   53.776   39.327   -0.275
H   53.41   36.976   -0.624
H   53.831   36.708   0.93
N   51.513   37.101   1.917
C   50.976   38.22   0.117
C   50.237   37.445   2.032
N   49.871   38.088   0.938
H   51.006   38.705   -0.749
H   49.652   37.248   2.815
H   48.955   38.424   0.734
N   55.259   38.714   2.49
C   55.497   39.234   3.824
C   56.031   40.67   3.737
O   55.586   41.53   4.473
C   56.524   38.404   4.562
C   56.006   37.051   5.015
O   54.808   36.727   4.883
O   56.833   36.208   5.454
H   55.759   37.877   2.114
H   54.612   39.284   4.293
H   57.304   38.255   3.955
H   56.821   38.914   5.368
N   56.942   40.937   2.816
C   57.478   42.266   2.613
C   56.364   43.174   2.159
O   56.304   44.325   2.563
C   58.551   42.229   1.551
S   60.067   41.354   1.991
H   57.239   40.107   2.25
H   57.826   42.605   3.488
H   58.167   41.792   0.728
H   58.797   43.179   1.316
N   55.517   42.676   1.27
C   54.411   43.428   0.736
C   53.485   43.902   1.889
O   53.073   45.076   1.949
C   53.658   42.634   -0.3
S   52.631   43.57   -1.437
H   55.727   41.684   0.992
H   54.758   44.25   0.28
H   54.33   42.107   -0.843
H   53.067   41.967   0.182
N   53.12   43.005   2.783
H   53.434   42.032   2.581
C   47.406   43.646   -4.698
C   48.512   42.741   -4.187
O   49.122   42.027   -4.997
C   47.954   45.024   -5.061
C   47.037   45.858   -5.953
C   46.728   45.261   -7.302
O   47.579   44.545   -7.85
O   45.612   45.525   -7.826
H   47.058   43.29   -5.581
H   48.087   45.527   -4.223
H   48.801   44.895   -5.548
H   46.176   45.981   -5.471
H   47.477   46.737   -6.105
N   48.816   42.768   -2.902
C   49.788   41.842   -2.343
C   49.339   40.419   -2.475
O   50.146   39.558   -2.797
C   50.007   42.137   -0.835
S   50.835   43.687   -0.445
H   48.318   43.484   -2.344
H   50.656   41.956   -2.853
H   49.103   42.133   -0.398
H   50.548   41.377   -0.46
N   48.081   40.143   -2.178
C   47.578   38.793   -2.214
C   47.534   38.307   -3.634
O   47.879   37.134   -3.858
C   46.185   38.73   -1.555
C   46.223   38.826   -0.047
O   47.291   39.059   0.527
O   45.121   38.713   0.586
H   47.502   40.97   -1.922
H   48.235   38.214   -1.719
H   45.648   39.488   -1.916
H   45.768   37.864   -1.816
N   47.066   39.128   -4.556
C   47.008   38.78   -5.972
C   48.376   38.349   -6.456
O   48.51   37.325   -7.157
C   46.491   39.954   -6.795
C   46.636   39.807   -8.308
C   46.151   41.046   -9.027
C   46.406   40.928   -10.5
N   45.938   42.151   -11.22
H   46.738   40.053   -4.187
H   46.363   38.019   -6.092
H   45.517   40.08   -6.589
H   46.99   40.779   -6.515
H   47.6   39.657   -8.526
H   46.098   39.021   -8.608
H   45.175   41.144   -8.873
H   46.641   41.835   -8.675
H   47.387   40.814   -10.663
H   45.917   40.134   -10.864
H   45.962   41.982   -12.204
H   45.004   42.362   -10.936
H   46.54   42.915   -10.995
N   49.394   39.132   -6.159
C   50.748   38.834   -6.593
C   51.187   37.484   -6.04
O   51.787   36.689   -6.743
C   51.714   39.92   -6.17
H   49.149   39.974   -5.593
H   50.768   38.79   -7.596
H   52.655   39.613   -6.319
H   51.549   40.748   -6.708
H   51.586   40.127   -5.199
N   50.916   37.218   -4.785
C   51.324   35.971   -4.176
C   50.64   34.762   -4.784
O   51.291   33.765   -5.009
C   51.074   36.006   -2.687
H   50.395   37.962   -4.276
H   52.33   35.863   -4.292
H   51.844   35.587   -2.203
H   50.972   36.954   -2.382
H   50.237   35.5   -2.471
N   49.347   34.877   -5.011
C   48.589   33.813   -5.614
C   47.149   34.203   -5.69
H   48.933   35.789   -4.72
H   48.671   32.983   -5.041
H   46.563   33.391   -5.604
H   46.922   34.843   -4.95
H   46.954   34.647   -6.57
C   66.193   42.454   3.753
C   65.234   42.474   2.578
O   65.376   41.776   1.593
C   67.208   43.585   3.612
C   68.096   43.707   4.824
C   69.139   44.809   4.663
C   70.124   44.816   5.819
N   71.171   45.888   5.72
H   65.671   42.671   4.602
H   67.774   43.397   2.819
H   66.71   44.435   3.494
H   67.534   43.917   5.629
H   68.573   42.838   4.978
H   69.64   44.654   3.818
H   68.674   45.688   4.634
H   69.615   44.941   6.684
H   70.586   43.917   5.863
H   71.841   45.756   6.447
H   71.617   45.825   4.83
H   70.734   46.779   5.819
N   64.052   43.068   2.763
C   63.064   43.261   1.722
C   63.55   44.213   0.629
O   63.173   44.028   -0.533
C   61.776   43.813   2.334
S   60.865   42.606   3.354
O   64.267   45.145   1.026
H   63.901   43.391   3.759
H   62.874   42.366   1.289
H   62.01   44.588   2.912
H   61.176   44.103   1.594
H   48.956   33.5832   -6.6086
H   46.598   43.7283   -4.00941
H   58.7811   36.6007   1.31093
H   52.5802   43.2555   3.59276
H   66.6821   41.5259   3.88548
