361

N   37.211   20.235   8.29
C   37.02   19.366   9.488
C   36.005   18.261   9.219
O   35.758   17.889   8.069
C   36.548   20.202   10.685
C   37.594   21.142   11.261
C   38.757   20.377   11.885
C   39.779   21.329   12.494
N   40.92   20.61   13.13
H   38.047   19.964   7.821
H   37.908   18.951   9.716
H   35.762   20.748   10.39
H   36.258   19.571   11.407
H   37.949   21.725   10.529
H   37.171   21.713   11.965
H   38.405   19.788   12.603
H   39.204   19.841   11.18
H   40.132   21.931   11.77
H   39.321   21.897   13.187
H   40.964   19.678   12.772
H   41.771   21.091   12.922
H   40.783   20.583   14.119
H   36.43   20.126   7.68
H   37.281   21.185   8.584
N   35.426   17.753   10.302
C   34.425   16.691   10.268
C   34.249   16.194   11.696
O   35.224   15.844   12.357
C   34.886   15.536   9.372
C   33.907   14.37   9.301
C   34.358   13.279   8.345
O   35.48   12.759   8.518
O   33.589   12.935   7.423
H   35.756   18.189   11.203
H   33.564   17.048   9.928
H   34.994   15.89   8.46
H   35.732   15.192   9.738
H   33.839   13.971   10.196
H   33.044   14.711   8.977
N   33.01   16.175   12.175
C   32.732   15.712   13.533
C   32.964   14.211   13.602
O   32.957   13.526   12.577
C   31.269   15.989   13.948
O   30.382   15.316   13.045
C   30.974   17.486   13.927
H   32.28   16.507   11.522
H   33.369   16.161   14.159
H   31.118   15.613   14.883
H   31.816   17.999   14.103
H   30.61   17.746   13.031
H   30.299   17.707   14.634
H   30.9   14.903   12.289
N   33.175   13.7   14.809
C   33.388   12.269   14.982
C   32.133   11.537   14.522
O   32.214   10.484   13.902
C   33.681   11.95   16.449
H   33.175   14.381   15.584
H   34.153   11.982   14.41
H   32.955   12.328   17.021
H   33.722   10.96   16.57
H   34.556   12.355   16.707
N   30.972   12.108   14.821
C   29.709   11.496   14.435
C   29.574   11.467   12.914
O   29.114   10.476   12.339
C   28.542   12.264   15.059
H   31.043   13.002   15.339
H   29.687   10.55   14.775
H   27.681   11.886   14.724
H   28.583   12.176   16.053
H   28.607   13.227   14.804
N   29.982   12.558   12.27
C   29.918   12.662   10.813
C   30.824   11.621   10.174
O   30.464   10.989   9.176
C   30.346   14.061   10.368
H   30.343   13.316   12.881
H   28.973   12.492   10.519
H   29.565   14.532   9.963
H   30.673   14.574   11.16
H   31.078   13.984   9.693
N   32.008   11.452   10.751
C   32.958   10.484   10.233
C   32.367   9.083   10.331
O   32.5   8.286   9.408
C   34.278   10.568   10.998
C   35.328   9.596   10.497
C   36.659   9.818   11.183
C   37.688   8.808   10.709
N   39.008   9.007   11.374
H   32.185   12.052   11.574
H   33.143   10.687   9.268
H   34.634   11.493   10.904
H   34.095   10.369   11.957
H   35.021   8.66   10.679
H   35.445   9.72   9.511
H   36.987   10.73   10.966
H   36.541   9.713   12.164
H   37.356   7.883   10.911
H   37.804   8.901   9.716
H   39.307   9.951   11.239
H   38.917   8.82   12.351
H   39.677   8.382   10.974
N   31.703   8.779   11.444
C   31.086   7.463   11.598
C   30.077   7.235   10.474
O   30.027   6.159   9.888
C   30.395   7.345   12.97
C   29.611   6.078   13.145
C   28.298   5.986   12.692
C   30.205   4.953   13.719
C   27.584   4.791   12.802
C   29.504   3.751   13.835
C   28.191   3.669   13.375
H   31.665   9.52   12.155
H   31.811   6.784   11.478
H   31.1   7.371   13.661
H   29.774   8.108   13.056
H   27.857   6.778   12.282
H   31.146   5.008   14.051
H   26.639   4.744   12.471
H   29.952   2.949   14.253
H   27.682   2.816   13.451
N   29.274   8.251   10.17
C   28.291   8.118   9.101
C   28.981   7.894   7.756
O   28.565   7.038   6.977
C   27.4   9.36   9.039
C   26.412   9.451   10.194
C   25.535   10.684   10.13
O   25.01   10.994   9.035
O   25.359   11.336   11.179
H   29.404   9.102   10.733
H   27.68   7.343   9.295
H   27.982   10.149   9.083
H   26.882   9.317   8.207
H   25.823   8.663   10.157
H   26.923   9.491   11.034
N   30.046   8.648   7.503
C   30.786   8.534   6.244
C   31.484   7.189   6.101
O   31.548   6.623   5.014
C   31.828   9.651   6.137
C   32.746   9.527   4.924
C   33.642   10.753   4.757
N   34.625   10.91   5.828
C   35.748   10.205   5.929
N   36.043   9.283   5.024
N   36.583   10.431   6.935
H   30.304   9.311   8.258
H   30.134   8.644   5.477
H   31.349   10.52   6.072
H   32.395   9.629   6.954
H   33.333   8.728   5.032
H   32.194   9.434   4.099
H   34.12   10.666   3.88
H   33.051   11.562   4.73
H   34.438   11.6   6.539
H   35.444   9.115   4.245
H   36.887   8.742   5.122
H   36.372   11.147   7.604
H   37.418   9.893   7.027
N   32.02   6.686   7.204
C   32.727   5.413   7.185
C   31.868   4.168   7.34
O   32.211   3.113   6.812
C   33.771   5.376   8.303
C   34.991   6.221   8.087
C   36.011   6.005   9.182
H   31.896   7.261   8.056
H   33.213   5.342   6.282
H   33.324   5.672   9.161
H   34.065   4.415   8.428
H   35.409   5.979   7.215
H   34.729   7.183   8.084
O   37.216   5.991   8.934
N   35.532   5.842   10.409
H   36.157   5.678   11.198
H   34.525   5.884   10.554
N   30.746   4.284   8.045
C   29.941   3.071   8.337
C   28.463   3.035   7.979
O   27.833   2.0   8.194
C   30.052   2.798   9.828
C   31.502   2.681   10.277
H   30.495   5.22   8.353
H   30.408   2.276   7.851
H   29.636   3.545   10.34
H   29.597   1.939   10.048
N   32.348   1.698   9.81
C   32.222   3.409   11.162
C   33.526   1.822   10.396
N   33.474   2.853   11.22
H   32.106   1.003   9.134
H   31.902   4.201   11.676
H   34.318   1.238   10.244
N   27.893   4.109   7.454
C   26.478   4.075   7.109
C   26.204   3.957   5.613
O   26.864   4.595   4.796
C   25.766   5.324   7.642
C   25.649   5.412   9.17
S   24.688   4.066   9.895
C   23.072   4.359   9.161
H   28.502   4.921   7.319
H   26.062   3.264   7.565
H   26.26   6.147   7.319
H   24.831   5.359   7.255
H   26.599   5.435   9.561
H   25.238   6.324   9.406
H   22.465   4.764   9.845
H   23.168   4.984   8.387
H   22.689   3.491   8.845
N   25.227   3.126   5.271
C   24.804   2.942   3.881
C   23.383   2.409   3.873
O   23.144   1.229   3.61
C   25.713   1.976   3.125
C   25.255   1.772   1.685
O   24.512   2.642   1.195
O   25.631   0.765   1.049
H   24.788   2.618   6.069
H   24.785   3.846   3.457
H   26.627   2.354   3.114
H   25.693   1.103   3.589
N   22.441   3.297   4.16
C   21.03   2.943   4.208
C   20.396   2.764   2.828
O   19.238   2.365   2.729
C   20.26   4.027   4.968
O   20.9   4.351   6.191
H   22.795   4.26   4.346
H   20.944   2.058   4.702
H   20.212   4.844   4.4
H   19.342   3.691   5.162
H   20.78   3.6   6.839
N   21.146   3.049   1.767
C   20.606   2.936   0.408
C   20.287   1.523   -0.071
O   19.269   1.303   -0.731
C   21.55   3.596   -0.596
O   21.605   4.993   -0.388
H   22.112   3.348   1.975
H   19.735   3.478   0.377
H   22.461   3.213   -0.48
H   21.215   3.417   -1.516
H   22.225   5.195   0.37
N   21.158   0.572   0.24
C   20.937   -0.809   -0.172
C   20.599   -1.699   1.022
O   21.081   -1.478   2.132
C   22.173   -1.38   -0.9
O   23.317   -1.305   -0.041
C   22.446   -0.59   -2.173
H   21.98   0.886   0.782
H   20.158   -0.832   -0.813
H   22.0   -2.362   -1.117
H   21.979   0.296   -2.129
H   23.432   -0.438   -2.273
H   22.11   -1.1   -2.968
H   23.463   -2.184   0.425
N   19.758   -2.699   0.785
C   19.348   -3.623   1.836
C   20.486   -4.58   2.162
O   20.59   -5.083   3.28
C   18.119   -4.419   1.386
O   18.421   -5.232   0.263
H   19.424   -2.765   -0.197
H   19.147   -3.089   2.661
H   17.821   -5.0   2.137
H   17.397   -3.78   1.138
H   19.398   -5.175   0.065
N   21.336   -4.828   1.171
C   22.473   -5.725   1.335
C   23.454   -5.533   0.188
O   23.064   -5.17   -0.924
C   21.995   -7.175   1.376
H   21.122   -4.333   0.281
H   22.939   -5.505   2.197
H   22.733   -7.758   1.713
H   21.207   -7.247   1.985
H   21.734   -7.464   0.456
N   24.731   -5.777   0.463
C   25.757   -5.628   -0.552
C   25.625   -6.72   -1.599
O   25.954   -7.881   -1.35
C   27.134   -5.681   0.083
H   24.92   -6.074   1.437
H   25.644   -4.735   -1.003
H   27.045   -5.699   1.079
H   27.613   -6.505   -0.22
H   27.661   -4.874   -0.187
N   25.122   -6.346   -2.768
C   24.969   -7.293   -3.859
C   26.16   -7.106   -4.791
O   26.581   -5.978   -5.048
C   23.666   -7.034   -4.616
O   23.524   -7.938   -5.696
H   24.856   -5.346   -2.831
H   25.013   -8.213   -3.486
H   22.902   -7.153   -3.99
H   23.681   -6.104   -4.97
H   24.305   -7.847   -6.313
N   26.703   -8.217   -5.278
C   27.852   -8.208   -6.18
C   29.149   -7.955   -5.416
O   29.247   -7.029   -4.608
C   27.661   -7.154   -7.273
O   26.427   -7.353   -7.947
H   26.238   -9.099   -4.96
H   27.919   -9.116   -6.609
H   27.66   -6.254   -6.854
H   28.403   -7.233   -7.928
H   26.213   -6.544   -8.492
N   30.141   -8.796   -5.69
C   31.448   -8.738   -5.043
C   32.261   -7.463   -5.256
O   33.369   -7.345   -4.732
C   32.284   -9.936   -5.492
O   32.369   -9.984   -6.907
H   29.902   -9.514   -6.42
H   31.298   -8.842   -4.03
H   33.199   -9.849   -5.115
H   31.852   -10.77   -5.166
H   32.021   -9.13   -7.29
N   31.728   -6.509   -6.009
C   32.459   -5.271   -6.266
C   32.046   -4.107   -5.362
O   32.597   -3.004   -5.463
C   32.294   -4.875   -7.734
C   30.844   -4.688   -8.127
H   30.789   -6.71   -6.382
H   33.44   -5.458   -6.073
H   32.779   -4.018   -7.885
H   32.688   -5.595   -8.299
O   29.93   -5.076   -7.393
N   30.623   -4.1   -9.299
H   31.394   -3.815   -9.869
H   29.687   -3.943   -9.612
N   31.089   -4.362   -4.473
C   30.586   -3.345   -3.548
C   29.643   -3.998   -2.529
C   29.116   -3.059   -1.463
C   28.069   -2.179   -1.734
C   29.667   -3.055   -0.179
C   27.578   -1.317   -0.753
C   29.188   -2.198   0.811
C   28.147   -1.332   0.52
O   27.685   -0.471   1.486
H   30.73   -5.341   -4.491
H   30.048   -2.668   -4.087
H   28.862   -4.376   -3.025
H   30.14   -4.737   -2.074
H   27.66   -2.162   -2.647
H   30.417   -3.678   0.034
H   26.825   -0.696   -0.959
H   29.594   -2.21   1.722
H   26.838   -0.047   1.17
H   31.3723   -2.79851   -3.01013
