336

C   8.458   31.378   41.943
C   7.344   31.007   42.942
O   6.746   29.937   42.857
C   7.895   32.341   40.86
C   7.416   33.641   41.506
C   6.77   31.669   40.096
C   8.531   34.574   41.971
H   9.185   31.819   42.484
H   8.636   32.556   40.236
H   6.843   34.133   40.847
H   6.849   33.409   42.3
H   6.44   32.28   39.377
H   7.103   30.823   39.682
H   6.019   31.458   40.721
H   9.091   34.827   41.186
H   8.124   35.389   42.376
H   9.089   34.101   42.648
N   7.082   31.898   43.892
C   6.053   31.679   44.905
C   4.68   32.095   44.398
O   3.758   31.281   44.347
C   6.389   32.464   46.177
C   6.908   33.868   45.887
O   6.984   34.676   46.833
O   7.25   34.165   44.723
H   7.668   32.759   43.853
H   6.016   30.687   45.081
H   5.561   32.539   46.721
H   7.088   31.964   46.673
N   4.552   33.369   44.037
C   3.307   33.919   43.507
C   3.583   34.494   42.121
O   4.502   35.29   41.941
C   2.748   35.038   44.415
C   3.813   36.12   44.638
C   1.493   35.642   43.781
H   5.417   33.942   44.165
H   2.653   33.173   43.407
H   2.554   34.64   45.302
H   3.384   37.019   44.577
H   4.218   36.0   45.542
H   4.519   36.035   43.938
H   1.004   34.928   43.283
H   0.91   36.014   44.502
H   1.763   36.37   43.153
N   2.786   34.083   41.142
C   2.97   34.546   39.776
C   2.993   36.065   39.696
O   2.073   36.743   40.156
C   1.865   34.002   38.872
S   2.338   33.856   37.118
H   2.042   33.422   41.431
H   3.859   34.202   39.441
H   1.61   33.096   39.198
H   1.082   34.617   38.929
N   4.059   36.621   39.109
C   4.186   38.066   38.974
C   3.018   38.644   38.183
O   2.51   38.011   37.26
C   5.515   38.223   38.243
C   6.294   37.035   38.706
C   5.272   35.94   38.63
H   4.257   38.508   39.877
H   5.382   38.2   37.255
H   5.968   39.072   38.505
H   7.057   36.857   38.097
H   6.612   37.166   39.637
H   5.148   35.618   37.696
H   5.505   35.177   39.227
N   2.598   39.847   38.556
C   1.498   40.517   37.879
C   1.885   40.849   36.443
O   2.949   41.42   36.186
C   1.133   41.809   38.617
C   0.694   41.614   40.06
C   -0.611   40.84   40.15
C   -1.069   40.702   41.593
N   -2.356   39.962   41.702
H   3.114   40.26   39.358
H   0.701   39.905   37.864
H   1.935   42.408   38.611
H   0.386   42.251   38.118
H   1.405   41.108   40.552
H   0.569   42.51   40.488
H   -1.311   41.328   39.64
H   -0.474   39.931   39.773
H   -0.363   40.212   42.113
H   -1.182   41.619   41.988
H   -2.871   40.306   42.487
H   -2.888   40.098   40.867
H   -2.169   38.988   41.825
N   1.018   40.491   35.506
C   1.279   40.774   34.109
C   0.792   42.181   33.774
O   -0.34   42.546   34.089
C   0.572   39.748   33.219
O   1.007   38.433   33.514
H   0.171   40.009   35.851
H   2.269   40.75   33.96
H   -0.409   39.809   33.377
H   0.78   39.953   32.267
H   1.355   38.399   34.45
N   1.654   42.967   33.135
C   1.308   44.326   32.755
C   0.773   44.351   31.333
O   -0.052   43.528   30.967
C   2.527   45.234   32.867
O   3.555   44.792   32.007
H   2.576   42.531   32.937
H   0.578   44.647   33.366
H   2.264   46.159   32.613
H   2.857   45.215   33.806
H   3.439   43.817   31.818
N   1.247   45.295   30.532
C   0.789   45.415   29.158
C   1.761   44.754   28.198
O   1.412   43.802   27.515
C   0.626   46.891   28.779
C   0.005   47.188   27.407
C   -1.504   47.011   27.489
C   0.339   48.605   26.975
H   1.953   45.921   30.961
H   -0.104   44.955   29.075
H   0.042   47.32   29.466
H   1.53   47.312   28.792
H   0.379   46.554   26.74
H   -1.878   47.642   28.169
H   -1.912   47.204   26.596
H   -1.716   46.071   27.756
H   1.333   48.712   26.913
H   -0.07   48.789   26.08
H   -0.024   49.255   27.645
N   2.983   45.259   28.144
C   3.985   44.7   27.239
C   4.715   43.493   27.827
O   5.415   42.78   27.116
C   5.007   45.779   26.866
C   4.44   47.023   26.162
C   5.567   48.0   25.861
C   3.72   46.605   24.874
H   3.163   46.056   28.775
H   3.519   44.404   26.388
H   5.445   46.089   27.703
H   5.673   45.372   26.253
H   3.774   47.456   26.762
H   6.24   47.561   25.266
H   5.196   48.808   25.403
H   6.008   48.275   26.716
H   2.973   45.982   25.102
H   3.355   47.418   24.423
H   4.369   46.146   24.269
N   4.542   43.271   29.126
C   5.206   42.178   29.807
C   4.224   41.165   30.393
O   3.386   41.504   31.24
C   6.102   42.732   30.929
C   6.89   41.616   31.589
C   7.024   43.784   30.359
H   3.9   43.94   29.598
H   5.786   41.688   29.134
H   5.507   43.123   31.626
H   7.806   41.944   31.824
H   6.421   41.32   32.422
H   6.968   40.842   30.96
H   7.565   43.388   29.615
H   6.483   44.549   30.006
H   7.639   44.116   31.077
N   4.345   39.916   29.944
C   3.473   38.84   30.411
C   4.168   37.805   31.282
O   5.34   37.487   31.094
C   2.819   38.126   29.225
C   1.837   38.98   28.443
C   0.698   39.43   29.328
C   -0.212   40.396   28.599
N   -1.261   40.954   29.497
H   5.101   39.777   29.245
H   2.708   39.254   30.946
H   3.543   37.829   28.603
H   2.332   37.325   29.575
H   2.314   39.783   28.09
H   1.471   38.444   27.685
H   0.165   38.635   29.6
H   1.07   39.887   30.13
H   0.338   41.151   28.23
H   -0.656   39.917   27.836
H   -1.738   41.697   29.028
H   -1.912   40.234   29.733
H   -0.832   41.304   30.329
N   3.423   37.287   32.247
C   3.917   36.267   33.152
C   2.968   35.084   33.059
O   1.753   35.247   33.199
C   3.961   36.802   34.595
C   5.174   37.662   34.895
C   6.447   37.094   34.989
C   5.061   39.045   35.026
C   7.571   37.879   35.198
C   6.18   39.842   35.236
C   7.431   39.255   35.319
O   8.549   40.034   35.512
H   2.453   37.676   32.299
H   4.814   35.972   32.841
H   3.144   37.35   34.747
H   3.972   36.022   35.214
H   6.549   36.101   34.904
H   4.16   39.471   34.967
H   8.477   37.459   35.26
H   6.081   40.832   35.327
H   9.173   39.907   34.743
N   3.52   33.904   32.788
C   2.73   32.68   32.707
C   3.282   31.691   33.73
O   4.489   31.479   33.808
C   2.785   32.074   31.295
C   2.194   30.679   31.288
C   1.996   32.948   30.344
H   4.55   33.93   32.641
H   1.792   32.895   32.961
H   3.745   31.988   31.04
H   1.205   30.731   31.434
H   2.375   30.24   30.407
H   2.607   30.134   32.019
H   1.138   33.225   30.779
H   2.532   33.762   30.116
H   1.796   32.436   29.507
N   2.393   31.1   34.524
C   2.802   30.16   35.558
C   2.006   28.861   35.528
O   0.831   28.849   35.164
C   2.665   30.817   36.932
S   3.668   32.324   37.148
H   1.405   31.363   34.344
H   3.779   29.931   35.409
H   1.709   31.062   37.069
H   2.949   30.157   37.624
N   2.659   27.769   35.917
C   2.032   26.45   35.944
C   2.529   25.702   37.172
O   3.496   26.12   37.795
C   2.393   25.68   34.677
S   4.181   25.669   34.357
H   3.649   27.935   36.199
H   1.046   26.572   36.029
H   2.094   24.743   34.782
H   1.946   26.114   33.908
N   1.875   24.6   37.519
C   2.278   23.841   38.695
C   2.76   22.425   38.394
O   2.884   21.596   39.296
C   1.128   23.808   39.705
C   -0.156   23.271   39.113
O   -0.141   22.621   38.069
N   -1.277   23.546   39.771
H   1.088   24.34   36.906
H   3.063   24.336   39.116
H   1.397   23.225   40.467
H   0.968   24.738   40.027
H   -1.238   24.091   40.611
H   -2.154   23.214   39.431
N   3.041   22.153   37.126
C   3.516   20.836   36.728
C   5.026   20.887   36.518
O   5.605   21.967   36.415
C   2.838   20.38   35.428
O   1.416   20.459   35.584
C   3.223   18.944   35.098
H   2.897   22.937   36.465
H   3.323   20.188   37.465
H   3.11   21.01   34.674
H   4.081   18.933   34.581
H   3.343   18.422   35.945
H   2.502   18.517   34.548
H   1.18   21.109   36.314
N   5.666   19.724   36.467
C   7.109   19.677   36.265
C   7.475   20.009   34.832
O   6.958   19.409   33.888
C   7.669   18.298   36.62
C   7.72   18.056   38.111
O   6.646   17.918   38.734
O   8.838   18.012   38.66
H   5.072   18.888   36.579
H   7.514   20.392   36.85
H   7.082   17.613   36.202
H   8.59   18.238   36.252
N   8.373   20.976   34.682
C   8.84   21.402   33.371
C   7.674   21.702   32.429
O   7.446   20.988   31.454
C   9.75   20.324   32.769
C   10.855   19.855   33.717
C   11.861   18.948   33.028
N   12.555   19.656   31.959
C   13.548   19.147   31.239
N   14.114   19.874   30.285
N   13.978   17.917   31.471
H   8.709   21.397   35.574
H   9.389   22.243   33.476
H   9.191   19.537   32.538
H   10.182   20.697   31.957
H   11.343   20.651   34.072
H   10.444   19.348   34.474
H   12.52   18.645   33.706
H   11.368   18.174   32.647
H   12.261   20.599   31.751
H   13.825   20.809   30.105
H   14.855   19.473   29.729
H   13.561   17.378   32.209
H   14.711   17.525   30.92
N   6.938   22.765   32.737
C   5.801   23.188   31.927
C   6.034   24.616   31.441
O   5.522   25.03   30.398
C   4.511   23.111   32.749
S   4.679   23.711   34.462
H   7.241   23.266   33.6
H   5.744   22.593   31.126
H   3.818   23.664   32.296
H   4.219   22.159   32.784
N   6.831   25.352   32.205
C   7.158   26.736   31.896
C   8.176   26.821   30.767
O   8.58   25.754   30.275
C   7.729   27.415   33.136
C   9.106   26.893   33.5
O   8.597   27.945   30.441
H   7.203   24.853   33.046
H   6.314   27.176   31.565
H   7.798   28.393   32.959
H   7.114   27.246   33.901
O   9.285   25.694   33.746
N   10.093   27.789   33.527
H   9.897   28.748   33.319
H   11.021   27.504   33.754
H   8.89692   30.5205   41.491
