169

C   -5.545   38.303   -28.994
O   -4.528   38.579   -28.348
N   -6.168   37.093   -28.834
C   -5.703   36.062   -27.868
C   -4.471   35.249   -28.378
O   -4.605   34.162   -28.951
C   -6.981   35.223   -27.66
C   -7.753   35.327   -28.975
C   -7.469   36.752   -29.447
H   -5.493   36.484   -26.974
H   -6.752   34.267   -27.468
H   -7.529   35.589   -26.907
H   -7.409   34.663   -29.626
H   -8.722   35.194   -28.813
H   -7.411   36.792   -30.446
H   -8.184   37.381   -29.134
N   -3.268   35.802   -28.139
C   -1.973   35.209   -28.591
C   -1.641   33.796   -28.007
O   -1.255   32.904   -28.767
C   -0.794   36.188   -28.301
C   -0.856   37.595   -28.933
C   -0.65   37.765   -30.306
C   -1.067   38.721   -28.127
C   -0.641   39.042   -30.862
C   -1.062   39.997   -28.686
C   -0.837   40.156   -30.05
H   -3.309   36.698   -27.601
H   -2.047   35.089   -29.597
H   -0.744   36.311   -27.312
H   0.043   35.754   -28.63
H   -0.511   36.975   -30.887
H   -1.222   38.606   -27.151
H   -0.491   39.152   -31.85
H   -1.221   40.803   -28.096
H   -0.816   41.072   -30.452
N   -1.779   33.618   -26.679
C   -1.54   32.329   -25.977
C   -2.739   32.051   -25.022
O   -3.372   32.975   -24.492
C   -0.203   32.381   -25.179
C   1.126   32.461   -25.983
C   2.315   32.704   -25.032
C   1.391   31.206   -26.84
H   -2.076   34.484   -26.166
H   -1.508   31.603   -26.651
H   -0.237   33.188   -24.59
H   -0.157   31.557   -24.618
H   1.062   33.214   -26.629
H   2.369   31.951   -24.381
H   3.154   32.752   -25.568
H   2.172   33.563   -24.547
H   0.644   31.095   -27.492
H   2.254   31.322   -27.327
H   1.442   30.41   -26.242
N   -3.033   30.755   -24.783
C   -4.191   30.331   -23.943
C   -3.796   30.228   -22.431
O   -3.749   29.137   -21.853
C   -4.771   29.021   -24.563
C   -6.211   28.673   -24.137
C   -7.296   29.193   -24.852
C   -6.452   27.819   -23.054
C   -8.6   28.867   -24.487
C   -7.757   27.503   -22.684
C   -8.83   28.025   -23.402
O   -10.115   27.718   -23.035
H   -2.388   30.077   -25.231
H   -4.905   31.029   -24.022
H   -4.76   29.121   -25.554
H   -4.181   28.266   -24.29
H   -7.136   29.799   -25.624
H   -5.689   27.437   -22.55
H   -9.374   29.237   -25.006
H   -7.925   26.902   -21.903
H   -10.13   27.458   -22.07
N   -3.534   31.39   -21.796
C   -3.115   31.478   -20.37
C   -4.349   31.886   -19.507
O   -5.133   31.0   -19.152
C   -1.856   32.386   -20.234
C   -0.577   31.854   -20.896
O   0.059   30.933   -20.339
O   -0.208   32.357   -21.979
H   -3.651   32.237   -22.397
H   -2.858   30.563   -20.084
H   -2.081   33.272   -20.643
H   -1.681   32.51   -19.256
N   -4.538   33.187   -19.19
C   -5.661   33.68   -18.344
C   -6.62   34.573   -19.188
O   -7.746   34.139   -19.447
C   -5.081   34.325   -17.05
C   -6.118   34.693   -15.973
C   -6.674   33.704   -15.152
C   -6.503   36.025   -15.793
C   -7.605   34.045   -14.173
C   -7.432   36.365   -14.813
C   -7.983   35.374   -14.004
H   -3.82   33.83   -19.594
H   -6.189   32.879   -18.071
H   -4.453   33.676   -16.647
H   -4.618   35.158   -17.313
H   -6.404   32.758   -15.266
H   -6.108   36.734   -16.37
H   -8.001   33.325   -13.593
H   -7.704   37.332   -14.694
H   -8.65   35.614   -13.3
N   -6.199   35.785   -19.619
C   -7.059   36.698   -20.427
C   -6.976   36.318   -21.935
O   -6.051   36.717   -22.644
C   -6.67   38.187   -20.19
C   -6.981   38.77   -18.799
C   -8.302   38.981   -18.394
C   -5.938   39.128   -17.94
C   -8.578   39.543   -17.149
C   -6.212   39.684   -16.692
C   -7.53   39.898   -16.3
O   -7.801   40.461   -15.081
H   -5.23   36.026   -19.341
H   -8.003   36.575   -20.132
H   -5.683   38.275   -20.345
H   -7.156   38.743   -20.869
H   -9.052   38.729   -18.998
H   -4.998   38.984   -18.22
H   -9.525   39.691   -16.863
H   -5.462   39.93   -16.078
H   -7.616   41.442   -15.121
N   -7.954   35.527   -22.407
C   -7.992   35.021   -23.808
C   -9.438   35.192   -24.353
O   -10.314   34.357   -24.112
C   -7.411   33.578   -23.94
C   -7.881   32.495   -22.952
H   -8.692   35.292   -21.71
H   -7.388   35.581   -24.358
H   -7.61   33.235   -24.881
H   -6.394   33.633   -23.867
N   -9.159   31.961   -22.883
C   -7.098   31.978   -21.907
C   -9.038   31.182   -21.765
N   -7.832   31.103   -21.127
H   -9.901   32.085   -23.433
H   -6.131   32.225   -21.761
H   -9.867   30.649   -21.398
N   -9.68   36.299   -25.079
C   -11.024   36.646   -25.605
C   -10.907   36.744   -27.142
O   -10.418   37.772   -27.666
C   -11.52   37.949   -24.916
C   -13.043   38.185   -24.897
C   -13.748   38.427   -26.083
C   -13.724   38.24   -23.675
C   -15.112   38.705   -26.046
C   -15.087   38.523   -23.64
C   -15.779   38.751   -24.826
O   -17.122   39.01   -24.802
O   -11.307   35.781   -27.833
H   -8.842   36.896   -25.243
H   -11.641   35.904   -25.39
H   -11.202   37.935   -23.965
H   -11.098   38.727   -25.389
H   -13.272   38.401   -26.955
H   -13.231   38.075   -22.831
H   -15.614   38.871   -26.898
H   -15.569   38.563   -22.765
H   -17.357   39.616   -25.561
H   -5.90935   39.0478   -29.7115
