158
1.xyz
C              17.923              -12.87              -11.801             
O              17.061              -13.718             -11.972             
N              18.491              -12.658             -10.611             
C              18.152              -13.486             -9.441              
C              17.731              -12.643             -8.221              
O              17.756              -11.392             -8.277              
C              19.347              -14.355             -9.049              
O              20.298              -13.548             -8.359              
C              19.983              -14.921             -10.29              
H              19.172              -11.882             -10.581             
H              17.377              -14.085             -9.69               
H              19.03               -15.088             -8.415              
H              20.285              -15.866             -10.127             
H              19.325              -14.921             -11.05              
H              20.781              -14.369             -10.555             
H              20.518              -12.724             -8.895              
N              17.39               -13.325             -7.13               
C              16.965              -12.677             -5.869              
C              18.096              -11.897             -5.193              
O              17.849              -11.098             -4.297              
C              16.414              -13.727             -4.857              
C              15.505              -14.839             -5.45               
C              14.215              -15.092             -4.625              
H              17.446              -14.364             -7.233              
H              16.23               -12.021             -6.098              
H              17.194              -14.178             -4.413              
H              15.881              -13.241             -4.156              
H              15.237              -14.568             -6.371              
H              16.026              -15.688             -5.481              
O              13.674              -14.16              -4.014              
N              13.713              -16.341             -4.625              
H              12.898              -16.561             -4.103              
H              14.198              -17.047             -5.178              
N              19.338              -12.15              -5.606              
C              20.502              -11.535             -5.002              
C              20.604              -10.081             -5.496              
O              21.047              -9.181              -4.747              
C              21.75               -12.356             -5.324              
C              23.023              -11.686             -4.845              
C              21.611              -13.712             -4.684              
H              19.393              -12.829             -6.401              
H              20.375              -11.508             -4.013              
H              21.819              -12.432             -6.323              
H              23.017              -11.626             -3.846              
H              23.816              -12.221             -5.139              
H              23.084              -10.764             -5.231              
H              20.65               -13.997             -4.702              
H              22.163              -14.381             -5.186              
H              21.926              -13.671             -3.733              
N              20.18               -9.888              -6.753              
C              20.16               -8.57               -7.402              
C              18.904              -7.807              -6.988              
O              17.851              -8.408              -6.766              
C              20.241              -8.702              -8.932              
C              21.623              -9.164              -9.48               
C              21.814              -10.651             -9.409              
O              20.87               -11.418             -9.686              
O              22.923              -11.1               -9.078              
H              19.863              -10.761             -7.234              
H              20.973              -8.051              -7.132              
H              19.583              -9.377              -9.215              
H              20.06               -7.819              -9.325              
H              21.667              -8.887              -10.421             
H              22.312              -8.733              -8.929              
N              19.013              -6.483              -6.852              
C              17.85               -5.692              -6.56               
C              17.452              -4.968              -7.851              
O              18.202              -4.087              -8.337              
C              18.147              -4.692              -5.447              
C              16.95               -3.76               -5.181              
S              17.23               -2.557              -3.884              
C              18.411              -1.493              -4.677              
H              19.966              -6.11               -6.972              
H              17.099              -6.295              -6.31               
H              18.35               -5.183              -4.603              
H              18.927              -4.127              -5.706              
H              16.71               -3.299              -6.073              
H              16.133              -4.355              -4.97               
H              18.688              -1.885              -5.558              
H              18.006              -0.589              -4.835              
H              19.223              -1.389              -4.097              
N              16.286              -5.301              -8.387              
C              15.819              -4.628              -9.576              
C              15.303              -3.263              -9.224              
O              14.835              -3.034              -8.11               
C              14.703              -5.429              -10.256             
O              15.223              -6.67               -10.711             
H              15.772              -6.048              -7.899              
H              16.6                -4.518              -10.202             
H              13.985              -5.599              -9.599              
H              14.368              -4.915              -11.031             
H              15.529              -7.208              -9.928              
N              15.355              -2.35               -10.191             
C              14.805              -0.991              -9.975              
C              14.476              -0.293              -11.271             
O              14.745              -0.821              -12.34              
C              15.717              -0.124              -9.09               
C              17.143              -0.066              -9.562              
C              17.509              0.702               -10.674             
C              18.147              -0.781              -8.885              
C              18.862              0.744               -11.122             
C              19.479              -0.722              -9.281              
C              19.842              0.052               -10.417             
H              15.792              -2.651              -11.07              
H              13.939              -1.117              -9.47               
H              15.353              0.794               -9.095              
H              15.709              -0.512              -8.182              
H              16.832              1.229               -11.165             
H              17.89               -1.346              -8.096              
H              19.082              1.272               -11.94              
H              20.187              -1.222              -8.773              
H              20.793              0.093               -10.698             
N              13.834              0.869               -11.174             
C              13.455              1.628               -12.371             
C              14.259              2.915               -12.404             
O              14.659              3.444               -11.369             
C              11.926              1.897               -12.414             
C              11.109              0.603               -12.604             
C              9.596               0.845               -12.513             
N              9.08                1.763               -13.53              
C              8.619               1.404               -14.731             
N              8.541               0.118               -15.105             
N              8.224               2.35                -15.56              
H              13.631              1.182               -10.211             
H              13.677              1.085               -13.178             
H              11.662              2.302               -11.557             
H              11.74               2.489               -13.177             
H              11.308              0.22                -13.503             
H              11.361              -0.049              -11.893             
H              9.14                -0.043              -12.607             
H              9.403               1.218               -11.602             
H              9.071               2.751               -13.306             
H              8.817               -0.593              -14.46              
H              8.211               -0.116              -16.012             
H              8.247               3.314               -15.296             
H              7.89                2.104               -16.479             
N              14.474              3.413               -13.604             
C              15.145              4.683               -13.797             
C              14.915              5.081               -15.248             
C              15.616              6.306               -15.743             
C              15.323              6.465               -17.236             
C              16.312              7.42                -17.935             
N              17.498              6.762               -18.704             
H              14.125              2.824               -14.392             
H              16.128              4.569               -13.597             
H              15.191              4.295               -15.83              
H              13.915              5.208               -15.377             
H              15.275              7.107               -15.27              
H              16.594              6.21                -15.624             
H              15.391              5.573               -17.675             
H              14.405              6.834               -17.349             
H              15.804              7.995               -18.6               
H              16.712              8.048               -17.244             
H              17.878              7.448               -19.305             
H              18.159              6.465               -18.031             
H              17.133              5.998               -19.213             
H              18.2601             -12.2802            -12.6295            
H              14.74               5.44636             -13.1327            
