248
4.xyz
C              19.284              -13.977             -6.427              
C              20.748              -14.373             -6.616              
O              21.082              -15.566             -6.582              
C              18.471              -14.45              -7.637              
C              16.962              -14.381             -7.412              
S              16.003              -14.583             -8.899              
C              16.57               -16.201             -9.407              
H              18.947              -14.424             -5.587              
H              18.699              -13.877             -8.429              
H              18.717              -15.401             -7.844              
H              16.716              -15.095             -6.707              
H              16.752              -13.481             -6.95               
H              17.309              -16.504             -8.803              
H              15.813              -16.855             -9.357              
H              16.909              -16.159             -10.349             
N              21.599              -13.385             -6.842              
C              23.001              -13.69              -7.09               
C              23.231              -14.157             -8.519              
O              22.429              -13.884             -9.438              
H              21.206              -12.439             -6.828              
H              23.56               -12.867             -6.915              
H              23.306              -14.411             -6.451              
N              24.335              -14.875             -8.708              
C              24.753              -15.402             -10.009             
C              24.385              -16.865             -10.194             
O              24.45               -17.654             -9.246              
C              26.279              -15.307             -10.152             
C              26.805              -13.934             -10.296             
C              27.363              -13.144             -9.315              
C              26.898              -13.187             -11.509             
N              27.801              -11.961             -9.854              
C              27.528              -11.958             -11.202             
C              26.509              -13.436             -12.827             
C              27.779              -10.978             -12.17              
C              26.762              -12.463             -13.792             
C              27.392              -11.25              -13.458             
H              24.893              -15.036             -7.83               
H              24.268              -14.871             -10.721             
H              26.696              -15.711             -9.339              
H              26.552              -15.826             -10.962             
H              27.435              -13.399             -8.354              
H              28.246              -11.22              -9.355              
H              26.061              -14.287             -13.082             
H              28.224              -10.117             -11.914             
H              26.489              -12.634             -14.733             
H              27.556              -10.581             -14.181             
N              24.003              -17.246             -11.402             
C              23.698              -18.639             -11.596             
C              23.456              -19.043             -13.024             
O              23.533              -18.246             -13.971             
H              23.952              -16.523             -12.112             
H              24.463              -19.208             -11.211             
H              22.873              -18.885             -11.033             
N              23.175              -20.329             -13.181             
C              22.893              -20.89              -14.483             
C              21.405              -20.877             -14.735             
O              20.612              -21.375             -13.945             
C              23.433              -22.313             -14.575             
C              24.949              -22.381             -14.533             
C              25.448              -23.821             -14.645             
N              25.231              -24.573             -13.412             
C              25.679              -25.809             -13.195             
N              26.376              -26.442             -14.132             
N              25.432              -26.411             -12.037             
H              23.176              -20.884             -12.3               
H              23.346              -20.332             -15.186             
H              23.079              -22.833             -13.807             
H              23.13               -22.708             -15.434             
H              25.329              -21.864             -15.295             
H              25.277              -22.01              -13.669             
H              24.955              -24.259             -15.391             
H              26.423              -23.791             -14.848             
H              24.707              -24.128             -12.675             
H              26.592              -26                 -14.998             
H              26.693              -27.383             -13.964             
H              24.925              -25.921             -11.324             
H              25.749              -27.342             -11.876             
N              21.042              -20.295             -15.86              
C              19.659              -20.159             -16.268             
C              18.791              -21.423             -16.193             
O              17.681              -21.38              -15.668             
C              19.632              -19.566             -17.701             
C              18.218              -19.192             -18.101             
C              20.212              -20.563             -18.694             
C              18.174              -18.395             -19.39              
H              21.844              -19.937             -16.438             
H              19.232              -19.485             -15.623             
H              20.188              -18.74              -17.693             
H              17.686              -20.023             -18.22              
H              17.816              -18.643             -17.376             
H              20.227              -20.155             -19.606             
H              21.142              -20.802             -18.422             
H              19.648              -21.387             -18.708             
H              18.571              -18.938             -20.127             
H              17.225              -18.174             -19.609             
H              18.697              -17.552             -19.275             
N              19.293              -22.557             -16.682             
C              18.475              -23.771             -16.685             
C              18.206              -24.374             -15.333             
O              17.347              -25.258             -15.19              
C              19.052              -24.822             -17.625             
C              18.964              -24.421             -19.083             
C              17.569              -23.935             -19.491             
H              20.251              -22.505             -17.037             
H              17.573              -23.527             -17.109             
H              20.013              -24.965             -17.398             
H              18.546              -25.675             -17.504             
H              19.614              -23.68              -19.258             
H              19.198              -25.209             -19.654             
O              16.539              -24.508             -19.095             
N              17.535              -22.879             -20.302             
H              16.646              -22.509             -20.626             
H              18.41               -22.452             -20.589             
N              18.925              -23.927             -14.317             
C              18.611              -24.463             -13.008             
C              17.387              -23.776             -12.413             
O              16.799              -24.258             -11.445             
C              19.822              -24.367             -12.073             
C              20.961              -25.289             -12.566             
C              22.125              -25.413             -11.609             
O              22.327              -24.513             -10.774             
O              22.858              -26.427             -11.716             
H              19.64               -23.247             -14.52              
H              18.436              -25.454             -13.076             
H              20.155              -23.46              -12.101             
H              19.557              -24.682             -11.199             
H              20.576              -26.189             -12.698             
H              21.301              -24.913             -13.414             
N              17.002              -22.646             -12.989             
C              15.809              -21.946             -12.5               
C              14.56               -22.61              -13.059             
O              14.63               -23.371             -14.015             
C              15.782              -20.5               -13.022             
C              16.934              -19.575             -12.667             
C              16.809              -18.265             -13.463             
C              16.914              -19.29              -11.147             
H              17.581              -22.317             -13.768             
H              15.789              -22.014             -11.502             
H              15.73               -20.547             -14.027             
H              14.936              -20.075             -12.681             
H              17.797              -20.013             -12.9               
H              15.944              -17.825             -13.233             
H              17.569              -17.664             -13.224             
H              16.835              -18.472             -14.439             
H              17.009              -20.152             -10.656             
H              17.672              -18.683             -10.923             
H              16.048              -18.857             -10.912             
N              13.396              -22.338             -12.456             
C              12.139              -22.906             -12.956             
C              12.041              -22.617             -14.462             
O              12.453              -21.544             -14.93              
C              11.081              -22.126             -12.186             
C              11.747              -21.927             -10.836             
C              13.222              -21.676             -11.149             
H              12.09               -23.883             -12.78              
H              10.897              -21.249             -12.612             
H              10.246              -22.651             -12.086             
H              11.348              -21.142             -10.365             
H              11.641              -22.745             -10.274             
H              13.41               -20.702             -11.217             
H              13.808              -22.092             -10.459             
N              11.501              -23.562             -15.222             
C              11.364              -23.399             -16.655             
C              10.653              -22.111             -17.043             
O              11.012              -21.479             -18.031             
H              11.192              -24.411             -14.706             
H              12.285              -23.412             -17.087             
H              10.85               -24.189             -17.038             
N              9.635               -21.73              -16.282             
C              8.906               -20.495             -16.61              
C              9.814               -19.275             -16.554             
O              9.548               -18.27              -17.23              
C              7.665               -20.267             -15.708             
C              8.057               -20.236             -14.233             
C              6.6                 -21.313             -16.004             
C              6.88                -19.923             -13.301             
H              9.411               -22.334             -15.49              
H              8.61                -20.594             -17.567             
H              7.277               -19.381             -15.947             
H              8.432               -21.121             -13.98              
H              8.752               -19.535             -14.102             
H              5.779               -21.113             -15.472             
H              6.377               -21.296             -16.977             
H              6.943               -22.218             -15.758             
H              6.183               -20.624             -13.418             
H              7.207               -19.919             -12.361             
H              6.511               -19.029             -13.539             
N              10.871              -19.33              -15.748             
C              11.851              -18.245             -15.704             
C              12.889              -18.419             -16.819             
O              13.157              -17.483             -17.586             
C              12.631              -18.195             -14.402             
C              11.823              -17.816             -13.191             
C              10.463              -17.466             -13.265             
C              12.444              -17.799             -11.962             
C              9.757               -17.107             -12.097             
C              11.748              -17.445             -10.796             
C              10.4                -17.098             -10.878             
H              10.938              -20.186             -15.169             
H              11.358              -17.395             -15.902             
H              13.016              -19.097             -14.239             
H              13.357              -17.523             -14.504             
H              9.995               -17.471             -14.132             
H              13.415              -18.044             -11.886             
H              8.786               -16.86              -12.177             
H              12.228              -17.443             -9.911              
H              9.901               -16.843             -10.048             
N              13.485              -19.615             -16.921             
C              14.521              -19.863             -17.924             
C              14.062              -19.564             -19.329             
O              14.784              -18.91              -20.102             
C              14.999              -21.31              -17.823             
H              13.155              -20.324             -16.246             
H              15.321              -19.275             -17.707             
H              14.338              -21.91              -18.272             
H              15.888              -21.398             -18.27              
H              15.082              -21.565             -16.861             
N              12.868              -20.031             -19.672             
C              12.34               -19.797             -21.014             
C              12.205              -18.297             -21.274             
O              12.573              -17.804             -22.351             
C              10.974              -20.481             -21.184             
C              11.045              -22.011             -21.266             
C              9.685               -22.689             -21.416             
H              12.366              -20.552             -18.939             
H              12.999              -20.164             -21.676             
H              10.396              -20.242             -20.404             
H              10.55               -20.147             -22.027             
H              11.612              -22.26              -22.055             
H              11.48               -22.354             -20.43              
O              9.604               -23.872             -21.764             
N              8.619               -21.957             -21.146             
H              7.684               -22.338             -21.238             
H              8.749               -20.991             -20.839             
N              11.688              -17.573             -20.292             
C              11.472              -16.131             -20.429             
C              12.777              -15.35              -20.51              
O              12.797              -14.221             -21.023             
C              10.629              -15.622             -19.258             
H              11.452              -18.104             -19.431             
H              10.943              -15.965             -21.277             
H              11.102              -15.817             -18.401             
H              10.495              -14.637             -19.351             
H              9.743               -16.083             -19.264             
N              13.857              -15.946             -20.023             
H              13.695              -16.901             -19.644             
H              14.7604             -15.4943            -20.0265            
H              19.169              -12.923             -6.30908            
