166

C   22.122   14.643   13.879
C   20.586   14.595   13.833
O   19.953   14.234   14.823
C   22.514   16.022   14.449
C   24.0   16.284   14.735
C   24.534   15.524   15.954
C   25.949   16.021   16.277
N   26.553   15.269   17.41
H   22.449   13.92   14.518
H   22.196   16.727   13.797
H   22.004   16.154   15.314
H   24.536   16.013   13.927
H   24.131   17.27   14.888
H   23.953   15.709   16.725
H   24.58   14.566   15.74
H   26.52   15.909   15.461
H   25.9   16.994   16.512
H   27.075   15.898   17.985
H   25.827   14.845   17.951
H   27.161   14.561   17.052
N   19.978   14.962   12.708
C   18.525   14.922   12.517
C   18.194   13.994   11.352
O   18.768   14.1   10.264
C   17.961   16.325   12.28
C   17.95   17.254   13.46
C   19.03   17.742   14.114
C   16.795   17.847   14.128
N   18.625   18.536   15.169
C   17.251   18.615   15.239
C   15.404   17.827   13.895
C   16.368   19.27   16.108
C   14.508   18.513   14.733
C   14.985   19.222   15.852
H   20.635   15.288   11.955
H   18.121   14.53   13.342
H   18.501   16.772   11.56
H   17.01   16.241   11.964
H   19.984   17.562   13.879
H   19.255   19.001   15.81
H   15.034   17.31   13.108
H   16.723   19.77   16.91
H   13.545   18.491   14.528
H   14.36   19.682   16.452
N   17.282   13.056   11.597
C   16.899   12.03   10.628
C   15.619   12.449   9.907
O   14.719   13.048   10.505
C   16.732   10.682   11.341
C   17.986   10.016   11.841
C   19.203   10.586   12.004
C   18.168   8.614   12.212
N   20.111   9.65   12.452
C   19.528   8.413   12.604
C   17.324   7.484   12.228
C   20.021   7.162   13.005
C   17.814   6.218   12.608
C   19.155   6.056   13.003
H   16.856   13.115   12.555
H   17.626   11.97   9.942
H   16.132   10.812   12.138
H   16.29   10.036   10.709
H   19.424   11.546   11.828
H   21.087   9.846   12.646
H   16.356   7.572   11.967
H   20.982   7.062   13.289
H   17.2   5.444   12.592
H   19.487   5.173   13.278
N   15.539   12.131   8.612
C   14.369   12.375   7.776
C   13.48   11.154   7.885
O   13.866   10.075   7.45
C   14.812   12.661   6.335
C   13.637   13.22   5.528
C   14.078   13.604   4.111
C   12.905   14.205   3.327
N   13.347   14.742   2.011
H   16.417   11.677   8.238
H   13.88   13.166   8.125
H   15.523   13.335   6.355
H   15.098   11.818   5.924
H   12.927   12.525   5.465
H   13.285   14.031   5.985
H   14.795   14.281   4.172
H   14.387   12.792   3.641
H   12.219   13.491   3.182
H   12.503   14.944   3.87
H   12.747   15.494   1.741
H   14.287   15.074   2.087
H   13.303   14.016   1.325
N   12.316   11.318   8.491
C   11.307   10.264   8.672
C   9.943   10.7   8.123
O   9.768   11.851   7.71
C   11.206   9.797   10.149
C   12.561   9.553   10.827
C   10.438   10.781   11.037
H   12.159   12.303   8.85
H   11.605   9.456   8.152
H   10.717   8.916   10.154
H   12.956   8.707   10.474
H   13.169   10.318   10.628
H   12.425   9.477   11.813
H   10.063   11.509   10.467
H   9.698   10.294   11.497
H   11.064   11.166   11.713
N   8.964   9.788   8.146
C   7.571   10.041   7.753
C   6.6   9.518   8.81
O   6.712   8.37   9.248
C   7.325   9.441   6.355
C   5.922   9.756   5.813
C   5.756   9.376   4.336
N   5.486   7.935   4.157
C   5.38   7.299   3.002
N   5.609   7.885   1.859
N   5.027   6.046   2.971
H   9.287   8.838   8.482
H   7.44   11.034   7.657
H   7.986   9.826   5.731
H   7.414   8.46   6.418
H   5.244   9.247   6.341
H   5.749   10.736   5.9
H   4.994   9.898   3.968
H   6.599   9.611   3.863
H   5.372   7.386   5.008
H   5.897   8.85   1.83
H   5.503   7.384   0.995
H   4.85   5.544   3.828
H   4.926   5.56   2.097
N   5.654   10.362   9.225
C   4.565   9.969   10.12
C   3.56   9.04   9.415
O   3.398   9.116   8.192
C   3.846   11.211   10.646
C   4.411   11.73   11.971
O   3.94   11.258   13.035
O   5.276   12.633   11.94
H   5.758   11.336   8.853
H   4.972   9.437   10.872
H   3.933   11.932   9.965
H   2.887   10.982   10.783
N   2.797   8.229   10.171
C   1.815   7.301   9.617
C   0.63   8.004   8.914
O   -0.14   7.359   8.198
C   1.357   6.443   10.802
C   1.565   7.357   12.008
C   2.807   8.153   11.621
H   2.256   6.645   8.978
H   0.396   6.198   10.718
H   1.915   5.625   10.891
H   0.784   7.952   12.123
H   1.729   6.817   12.82
H   2.779   9.074   12.035
H   3.642   7.691   11.957
N   0.488   9.324   9.099
C   -0.516   10.18   8.466
C   -0.76   11.365   9.407
H   1.207   9.719   9.783
H   -1.376   9.65   8.358
H   -1.302   11.059   10.187
H   0.117   11.719   9.725
H   -1.252   12.08   8.915
H   -0.214389   10.5498   7.46494
H   22.6046   14.4909   12.9247
