339

C   -5.536   -2.728   0.568
C   -5.298   -1.845   -0.636
O   -4.468   -2.158   -1.509
C   -4.85   -2.14   1.786
C   -5.218   -2.833   3.062
C   -6.125   -3.851   3.22
C   -4.719   -2.53   4.358
N   -6.206   -4.197   4.549
C   -5.36   -3.391   5.268
C   -3.808   -1.586   4.848
C   -5.065   -3.389   6.634
C   -3.532   -1.569   6.199
C   -4.17   -2.46   7.08
H   -6.524   -2.785   0.709
H   -3.867   -2.224   1.681
H   -5.113   -1.188   1.883
H   -6.645   -4.274   2.486
H   -6.784   -4.915   4.929
H   -3.365   -0.937   4.232
H   -5.505   -4.051   7.246
H   -2.872   -0.916   6.557
H   -3.953   -2.401   8.056
N   -6.055   -0.752   -0.687
C   -5.947   0.222   -1.757
C   -5.237   1.46   -1.2
O   -5.568   1.935   -0.115
C   -7.345   0.631   -2.245
O   -8.053   -0.572   -2.645
C   -7.23   1.617   -3.37
H   -6.729   -0.66   0.107
H   -5.384   -0.156   -2.486
H   -7.857   1.05   -1.478
H   -8.073   1.622   -3.919
H   -7.078   2.544   -3.01
H   -6.459   1.376   -3.97
H   -8.147   -1.188   -1.86
N   -4.271   1.971   -1.948
C   -3.526   3.11   -1.489
C   -3.223   4.057   -2.601
O   -3.404   3.735   -3.784
H   -4.114   1.493   -2.85
H   -4.054   3.59   -0.766
H   -2.659   2.797   -1.062
N   -2.77   5.248   -2.179
C   -2.255   6.267   -3.091
C   -0.86   6.659   -2.637
O   -0.601   6.835   -1.428
C   -3.158   7.511   -3.14
C   -2.632   8.608   -4.06
C   -3.701   9.604   -4.455
N   -4.492   10.051   -3.316
C   -5.788   9.8   -3.175
N   -6.437   9.126   -4.11
N   -6.442   10.246   -2.115
H   -2.819   5.379   -1.144
H   -2.2   5.881   -4.009
H   -4.051   7.232   -3.47
H   -3.223   7.882   -2.223
H   -1.896   9.104   -3.594
H   -2.268   8.19   -4.895
H   -3.253   10.392   -4.874
H   -4.303   9.166   -5.122
H   -4.031   10.579   -2.597
H   -5.971   8.779   -4.92
H   -7.427   8.956   -4.004
H   -5.947   10.759   -1.407
H   -7.42   10.075   -2.014
N   0.044   6.766   -3.604
C   1.437   7.142   -3.355
C   1.982   7.72   -4.66
O   1.803   7.136   -5.728
C   2.269   5.917   -2.954
C   3.746   6.084   -2.559
C   3.838   6.959   -1.313
C   4.414   4.756   -2.27
H   -0.323   6.559   -4.562
H   1.458   7.85   -2.663
H   1.804   5.477   -2.169
H   2.244   5.266   -3.728
H   4.232   6.519   -3.307
H   3.338   6.525   -0.564
H   4.797   7.069   -1.054
H   3.439   7.855   -1.506
H   4.376   4.174   -3.085
H   5.372   4.907   -2.017
H   3.942   4.297   -1.515
N   2.604   8.883   -4.552
C   3.134   9.638   -5.66
C   2.163   9.694   -6.822
O   2.558   9.453   -7.98
C   4.468   9.068   -6.137
C   5.396   8.685   -5.032
N   5.604   9.493   -3.938
C   6.184   7.6   -4.858
C   6.472   8.913   -3.124
N   6.844   7.766   -3.662
H   2.681   9.222   -3.546
H   3.311   10.587   -5.351
H   4.292   8.251   -6.701
H   4.929   9.755   -6.714
H   6.274   6.825   -5.477
H   6.791   9.281   -2.256
H   7.498   7.121   -3.265
N   0.91   9.994   -6.503
C   -0.122   10.205   -7.513
C   -0.405   8.924   -8.288
O   -0.847   8.97   -9.452
C   0.358   11.299   -8.473
C   -0.738   12.174   -8.952
H   0.728   10.065   -5.479
H   -0.97   10.448   -7.026
H   1.04   11.851   -7.989
H   0.793   10.848   -9.255
O   -1.495   12.735   -8.155
N   -0.848   12.308   -10.273
H   -0.218   11.829   -10.881
H   -1.566   12.891   -10.657
N   -0.115   7.771   -7.678
C   -0.523   6.511   -8.278
C   -1.442   5.813   -7.3
O   -1.219   5.885   -6.095
C   0.684   5.665   -8.758
C   1.555   4.972   -7.713
C   3.064   5.111   -7.995
C   3.903   5.006   -6.717
N   4.313   3.552   -6.426
H   0.396   7.857   -6.793
H   -1.023   6.697   -9.119
H   0.324   4.955   -9.389
H   1.28   6.275   -9.311
H   1.365   5.37   -6.811
H   1.327   3.995   -7.69
H   3.337   4.383   -8.614
H   3.228   6.0   -8.409
H   4.733   5.547   -6.819
H   3.372   5.339   -5.943
H   3.978   2.985   -7.167
H   5.303   3.517   -6.373
H   3.903   3.285   -5.563
N   -2.502   5.203   -7.851
C   -3.515   4.484   -7.093
C   -3.312   2.993   -7.352
O   -3.03   2.588   -8.491
C   -4.889   4.893   -7.606
C   -6.197   4.565   -6.861
C   -7.303   4.211   -7.869
C   -6.063   3.463   -5.86
H   -2.534   5.294   -8.901
H   -3.377   4.656   -6.124
H   -4.88   5.913   -7.731
H   -4.993   4.505   -8.551
H   -6.477   5.36   -6.334
H   -7.017   3.417   -8.402
H   -8.142   4.001   -7.372
H   -7.453   4.989   -8.475
H   -5.384   3.709   -5.16
H   -6.945   3.294   -5.408
H   -5.766   2.616   -6.313
N   -3.46   2.157   -6.323
C   -3.447   0.727   -6.57
C   -3.525   -0.13   -5.348
O   -3.588   0.386   -4.224
H   -3.575   2.593   -5.407
H   -4.225   0.495   -7.201
H   -2.597   0.492   -7.099
N   -3.477   -1.439   -5.587
C   -3.565   -2.435   -4.517
C   -2.186   -2.895   -4.065
O   -1.234   -2.919   -4.853
C   -4.345   -3.626   -5.001
C   -5.774   -3.275   -5.43
C   -6.302   -4.262   -6.406
C   -6.707   -3.155   -4.223
H   -3.372   -1.692   -6.592
H   -4.036   -2.015   -3.73
H   -3.891   -4.004   -5.79
H   -4.415   -4.28   -4.268
H   -5.763   -2.354   -5.835
H   -6.316   -5.184   -6.003
H   -7.24   -4.02   -6.679
H   -5.726   -4.285   -7.231
H   -6.371   -2.436   -3.616
H   -7.627   -2.926   -4.538
H   -6.727   -4.026   -3.733
N   -2.088   -3.274   -2.797
C   -0.836   -3.697   -2.238
C   -1.145   -4.635   -1.087
O   -2.271   -4.612   -0.524
C   0.002   -2.497   -1.763
C   -0.621   -1.721   -0.629
C   -0.436   -2.119   0.688
C   -1.404   -0.612   -0.886
C   -1.027   -1.418   1.733
C   -1.992   0.116   0.153
C   -1.815   -0.289   1.452
H   -2.982   -3.235   -2.265
H   -0.364   -4.238   -2.929
H   0.874   -2.844   -1.453
H   0.109   -1.884   -2.53
H   0.127   -2.915   0.892
H   -1.557   -0.317   -1.832
H   -0.893   -1.716   2.679
H   -2.544   0.935   -0.07
H   -2.238   0.206   2.21
N   -0.168   -5.441   -0.688
C   -0.488   -6.392   0.385
C   -0.679   -5.739   1.768
O   0.158   -4.935   2.223
C   0.728   -7.321   0.386
C   1.376   -7.114   -0.954
C   1.181   -5.681   -1.215
H   -1.31   -6.941   0.141
H   1.361   -7.079   1.127
H   0.446   -8.277   0.5
H   2.346   -7.359   -0.905
H   0.926   -7.686   -1.641
H   1.848   -5.111   -0.731
H   1.214   -5.463   -2.194
N   -1.76   -6.104   2.444
C   -2.08   -5.521   3.741
C   -0.988   -5.747   4.784
O   -0.709   -4.846   5.58
C   -3.389   -6.086   4.248
H   -2.345   -6.825   1.98
H   -2.208   -4.52   3.625
H   -4.152   -5.673   3.748
H   -3.405   -7.078   4.112
H   -3.489   -5.886   5.224
N   -0.367   -6.929   4.767
C   0.659   -7.27   5.777
C   2.076   -6.761   5.422
O   3.043   -7.073   6.121
C   0.632   -8.761   6.087
C   1.076   -9.617   4.934
H   -0.653   -7.569   4.012
H   0.391   -6.807   6.637
H   1.237   -8.931   6.866
H   -0.305   -9.013   6.334
O   1.539   -9.126   3.893
N   0.885   -10.925   5.085
H   0.467   -11.287   5.915
H   1.164   -11.556   4.354
N   2.179   -5.955   4.353
C   3.451   -5.287   4.0
C   3.627   -3.918   4.675
O   4.684   -3.316   4.542
C   3.6   -5.117   2.479
C   4.219   -6.281   1.737
C   3.804   -7.587   1.982
C   5.217   -6.077   0.797
C   4.326   -8.656   1.268
C   5.786   -7.143   0.091
C   5.336   -8.427   0.333
O   5.866   -9.465   -0.37
H   1.309   -5.843   3.807
H   4.21   -5.886   4.304
H   2.685   -4.952   2.096
H   4.168   -4.304   2.313
H   3.114   -7.76   2.689
H   5.542   -5.149   0.613
H   3.984   -9.582   1.418
H   6.505   -6.972   -0.575
H   5.905   -9.227   -1.341
N   2.616   -3.467   5.427
C   2.606   -2.11   5.991
C   2.222   -2.153   7.461
O   1.696   -3.178   7.949
C   1.636   -1.166   5.24
C   2.015   -1.1   3.758
C   0.195   -1.598   5.443
H   1.849   -4.151   5.576
H   3.536   -1.74   5.92
H   1.757   -0.254   5.61
H   1.403   -0.465   3.29
H   2.958   -0.783   3.673
H   1.928   -2.009   3.355
H   0.12   -2.115   6.296
H   -0.391   -0.788   5.49
H   -0.09   -2.174   4.676
N   2.56   -1.067   8.145
C   2.117   -0.795   9.497
C   1.141   0.381   9.521
O   1.505   1.529   9.222
C   3.316   -0.526   10.407
H   3.189   -0.41   7.609
H   1.643   -1.607   9.859
H   3.023   0.025   11.186
H   3.686   -1.395   10.732
H   4.017   -0.034   9.894
N   -0.118   0.108   9.878
C   -1.069   1.187   10.051
C   -0.51   2.212   11.05
O   0.071   1.833   12.072
C   -2.297   0.472   10.633
C   -2.155   -0.923   10.294
C   -0.721   -1.209   10.169
H   -1.284   1.632   9.18
H   -2.333   0.621   11.638
H   -3.144   0.878   10.244
H   -2.584   -1.521   11.008
H   -2.646   -1.141   9.421
H   -0.328   -1.584   11.017
H   -0.52   -1.85   9.417
N   -0.649   3.489   10.722
C   -0.117   4.561   11.551
C   -1.232   5.12   12.439
O   -2.393   4.982   12.085
C   0.523   5.599   10.63
C   1.765   5.01   9.912
S   2.475   5.977   8.551
C   3.485   7.106   9.511
H   -1.165   3.656   9.832
H   0.589   4.18   12.149
H   -0.128   5.877   9.934
H   0.822   6.381   11.163
H   2.484   4.822   10.646
H   1.508   4.051   9.588
H   2.943   7.484   10.262
H   4.273   6.615   9.884
H   3.805   7.851   8.924
N   -0.867   5.65   13.621
C   -1.704   6.51   14.552
C   -2.184   5.937   15.915
O   -2.122   6.612   17.002
C   -2.863   7.194   13.804
C   -2.315   8.227   12.88
S   -3.481   9.037   11.761
C   -3.169   8.143   10.234
O   -2.666   4.836   16.181
H   0.139   5.406   13.889
H   -1.142   7.356   14.75
H   -3.353   6.506   13.285
H   -3.458   7.623   14.471
H   -1.809   8.949   13.451
H   -1.53   7.798   12.327
H   -3.704   7.298   10.228
H   -3.434   8.711   9.455
H   -2.196   7.923   10.17
H   -5.17861   -3.68081   0.344537
