329

C   13.219   2.495   1.001
O   14.416   2.234   1.121
N   12.268   1.57   1.08
C   12.591   0.16   1.271
C   13.515   -0.35   0.171
O   14.5   -1.035   0.443
C   11.318   -0.686   1.303
C   10.594   -0.688   2.637
C   9.28   -1.44   2.574
H   11.299   1.93   0.996
H   13.078   0.069   2.149
H   10.685   -0.339   0.605
H   11.558   -1.636   1.077
H   11.178   -1.124   3.319
H   10.409   0.256   2.904
O   8.414   -1.13   1.756
N   9.125   -2.436   3.438
H   8.264   -2.977   3.464
H   9.887   -2.653   4.079
N   13.189   -0.012   -1.073
C   13.957   -0.477   -2.222
C   15.399   0.02   -2.201
O   16.334   -0.764   -2.366
C   13.297   -0.06   -3.552
C   14.209   -0.392   -4.723
C   11.95   -0.746   -3.711
H   12.354   0.602   -1.153
H   13.978   -1.489   -2.197
H   13.188   0.928   -3.538
H   15.157   -0.188   -4.477
H   14.126   -1.363   -4.947
H   13.946   0.156   -5.517
H   11.592   -0.564   -4.627
H   12.064   -1.732   -3.585
H   11.315   -0.391   -3.025
N   15.579   1.321   -1.996
C   16.916   1.907   -2.016
C   17.745   1.471   -0.812
O   18.929   1.167   -0.945
C   16.872   3.443   -2.083
C   15.91   3.904   -3.178
C   18.264   3.998   -2.339
C   15.864   5.406   -3.352
H   14.716   1.864   -1.827
H   17.376   1.534   -2.832
H   16.531   3.779   -1.211
H   16.188   3.485   -4.04
H   14.994   3.58   -2.946
H   18.23   4.996   -2.344
H   18.884   3.691   -1.619
H   18.596   3.673   -3.223
H   16.774   5.74   -3.594
H   15.219   5.636   -4.08
H   15.569   5.83   -2.497
N   17.122   1.446   0.363
C   17.8   0.974   1.564
C   18.285   -0.453   1.348
O   19.428   -0.786   1.659
C   16.869   1.031   2.776
C   17.541   0.55   4.048
O   18.576   1.132   4.435
O   17.032   -0.409   4.665
H   16.144   1.781   0.349
H   18.613   1.545   1.692
H   16.585   1.974   2.902
H   16.085   0.452   2.59
N   17.404   -1.29   0.81
C   17.747   -2.67   0.492
C   18.908   -2.715   -0.494
O   19.881   -3.44   -0.289
C   16.535   -3.402   -0.086
O   16.841   -4.757   -0.368
H   16.463   -0.88   0.639
H   18.043   -3.122   1.339
H   15.793   -3.368   0.577
H   16.26   -2.95   -0.93
H   16.561   -4.974   -1.302
N   18.803   -1.929   -1.562
C   19.842   -1.883   -2.584
C   21.207   -1.568   -1.979
O   22.188   -2.258   -2.252
C   19.485   -0.869   -3.661
H   17.934   -1.363   -1.603
H   19.893   -2.784   -3.037
H   19.806   0.037   -3.387
H   19.92   -1.129   -4.523
H   18.493   -0.847   -3.784
N   21.264   -0.529   -1.153
C   22.52   -0.122   -0.53
C   23.054   -1.186   0.429
O   24.258   -1.441   0.473
C   22.362   1.218   0.193
C   21.906   2.361   -0.704
C   22.853   2.576   -1.877
N   22.383   3.642   -2.757
C   21.628   3.446   -3.833
N   21.26   2.219   -4.172
N   21.244   4.477   -4.574
H   20.362   -0.045   -0.994
H   23.208   0.03   -1.254
H   21.686   1.105   0.915
H   23.243   1.467   0.585
H   21.001   2.156   -1.069
H   21.873   3.206   -0.174
H   23.746   2.818   -1.512
H   22.907   1.725   -2.389
H   22.648   4.588   -2.534
H   21.521   1.43   -3.623
H   20.703   2.079   -5.002
H   21.511   5.406   -4.305
H   20.693   4.333   -5.392
N   22.16   -1.806   1.193
C   22.558   -2.874   2.107
C   23.078   -4.091   1.345
O   23.86   -4.88   1.876
C   21.403   -3.266   3.036
C   21.203   -2.31   4.206
C   20.178   -2.831   5.206
N   18.81   -2.725   4.707
C   18.101   -3.749   4.242
N   18.628   -4.965   4.214
N   16.863   -3.557   3.807
H   21.186   -1.476   1.087
H   23.293   -2.532   2.705
H   20.565   -3.279   2.502
H   21.593   -4.169   3.405
H   22.07   -2.187   4.686
H   20.88   -1.429   3.863
H   20.389   -3.788   5.392
H   20.267   -2.296   6.044
H   18.375   -1.817   4.715
H   19.548   -5.138   4.555
H   18.089   -5.732   3.841
H   16.46   -2.639   3.85
H   16.333   -4.318   3.44
N   22.645   -4.233   0.097
C   23.133   -5.303   -0.765
C   24.29   -4.804   -1.626
O   24.803   -5.527   -2.481
C   22.002   -5.842   -1.644
C   20.996   -6.659   -0.895
H   21.943   -3.53   -0.204
H   23.472   -6.05   -0.186
H   21.525   -5.068   -2.074
H   22.398   -6.415   -2.369
N   20.104   -6.108   -0.001
C   20.741   -7.989   -0.909
C   19.344   -7.061   0.504
N   19.708   -8.213   -0.031
H   20.044   -5.135   0.227
H   21.213   -8.677   -1.452
H   18.619   -6.936   1.176
N   24.689   -3.558   -1.385
C   25.815   -2.933   -2.076
C   25.604   -2.813   -3.588
O   26.533   -3.011   -4.373
C   27.123   -3.665   -1.757
C   27.474   -3.683   -0.271
C   27.937   -2.332   0.247
H   24.125   -3.061   -0.655
H   25.924   -1.994   -1.708
H   27.046   -4.612   -2.068
H   27.871   -3.215   -2.246
H   26.663   -3.961   0.244
H   28.206   -4.349   -0.125
O   29.016   -1.855   -0.104
N   27.127   -1.716   1.1
H   27.377   -0.815   1.499
H   26.245   -2.162   1.35
N   24.376   -2.483   -3.984
C   24.056   -2.203   -5.381
C   23.679   -0.732   -5.543
O   23.162   -0.118   -4.61
C   22.901   -3.084   -5.868
C   23.078   -4.541   -5.567
H   23.671   -2.442   -3.218
H   24.871   -2.381   -5.937
H   22.048   -2.773   -5.434
H   22.807   -2.977   -6.865
N   24.179   -5.26   -5.974
C   22.277   -5.417   -4.913
C   24.058   -6.513   -5.574
N   22.912   -6.636   -4.93
H   24.951   -4.889   -6.492
H   21.394   -5.217   -4.499
H   24.718   -7.242   -5.732
N   23.937   -0.164   -6.732
C   23.673   1.249   -7.026
C   22.248   1.51   -7.513
O   21.981   2.589   -8.043
C   24.66   1.563   -8.164
C   25.482   0.303   -8.372
C   24.661   -0.816   -7.832
H   23.883   1.825   -6.215
H   24.166   1.801   -9.008
H   25.257   2.333   -7.916
H   25.673   0.183   -9.353
H   26.359   0.388   -7.885
H   24.021   -1.169   -8.511
H   25.229   -1.561   -7.484
N   21.353   0.544   -7.335
C   19.99   0.655   -7.851
C   19.295   1.946   -7.426
O   19.362   2.348   -6.264
C   19.151   -0.55   -7.419
C   17.785   -0.687   -8.097
C   17.955   -0.962   -9.583
C   16.965   -1.785   -7.439
H   21.699   -0.281   -6.808
H   20.029   0.634   -8.864
H   19.669   -1.373   -7.627
H   18.992   -0.477   -6.441
H   17.275   0.163   -7.972
H   18.467   -1.812   -9.71
H   17.056   -1.049   -10.013
H   18.454   -0.207   -10.008
H   16.824   -1.565   -6.473
H   16.077   -1.86   -7.895
H   17.451   -2.657   -7.514
N   18.624   2.589   -8.377
C   17.845   3.787   -8.089
C   16.352   3.509   -8.212
O   15.913   2.761   -9.086
C   18.245   4.938   -9.016
C   19.636   5.498   -8.759
C   19.695   6.416   -7.55
H   18.702   2.17   -9.325
H   18.03   4.057   -7.137
H   18.211   4.613   -9.964
H   17.583   5.685   -8.904
H   20.267   4.735   -8.609
H   19.928   6.015   -9.566
O   20.696   7.147   -7.396
N   18.735   6.404   -6.751
H   18.7   6.988   -5.894
H   17.911   5.79   -6.922
N   15.58   4.123   -7.324
C   14.137   3.959   -7.295
C   13.524   5.303   -6.929
O   14.105   6.063   -6.158
C   13.754   2.893   -6.265
S   11.986   2.533   -6.136
H   16.1   4.732   -6.65
H   13.826   3.714   -8.208
H   14.231   2.044   -6.507
H   14.079   3.202   -5.366
H   11.634   2.268   -7.034
N   12.359   5.604   -7.489
C   11.717   6.888   -7.24
C   10.216   6.799   -7.49
O   9.733   5.829   -8.068
C   12.338   8.001   -8.114
O   11.962   9.287   -7.605
C   11.885   7.868   -9.563
H   11.96   4.87   -8.098
H   11.862   7.138   -6.276
H   13.355   7.924   -8.067
H   12.076   6.942   -9.894
H   10.901   8.045   -9.628
H   12.376   8.529   -10.134
H   10.962   9.393   -7.627
N   9.479   7.807   -7.039
C   8.036   7.837   -7.235
C   7.576   9.186   -7.766
O   8.202   10.215   -7.518
C   7.307   7.518   -5.93
C   7.852   8.272   -4.734
S   6.586   8.657   -3.516
C   5.356   9.391   -4.581
H   10.007   8.551   -6.548
H   7.797   7.135   -7.919
H   6.332   7.747   -6.037
H   7.382   6.53   -5.748
H   8.605   7.714   -4.312
H   8.308   9.13   -5.069
H   4.613   9.773   -4.028
H   5.772   10.123   -5.124
H   4.983   8.695   -5.198
N   6.47   9.167   -8.498
C   5.905   10.373   -9.075
C   4.409   10.177   -9.255
O   3.916   9.051   -9.213
C   6.573   10.686   -10.415
C   6.473   9.567   -11.441
C   7.281   9.846   -12.695
O   8.236   10.647   -12.623
O   6.963   9.263   -13.752
H   6.048   8.221   -8.62
H   6.071   11.151   -8.47
H   6.127   11.478   -10.794
H   7.529   10.848   -10.243
H   6.827   8.745   -11.036
H   5.532   9.476   -11.709
N   3.689   11.275   -9.452
C   2.239   11.219   -9.601
C   1.822   10.322   -10.764
O   2.348   10.435   -11.871
C   1.665   12.629   -9.777
C   2.003   13.567   -8.628
C   1.725   15.027   -8.962
C   0.247   15.362   -8.847
N   0.002   16.827   -8.971
H   4.235   12.156   -9.49
H   1.837   10.85   -8.75
H   2.037   13.013   -10.616
H   0.674   12.555   -9.842
H   1.456   13.311   -7.825
H   2.976   13.468   -8.4
H   2.232   15.603   -8.327
H   2.019   15.205   -9.897
H   -0.253   14.883   -9.572
H   -0.091   15.047   -7.956
H   0.124   17.103   -9.924
H   -0.932   17.032   -8.68
H   0.65   17.321   -8.392
N   0.88   9.424   -10.503
C   0.308   8.6   -11.56
C   -0.571   9.421   -12.495
O   -0.669   9.122   -13.68
C   -0.476   7.422   -10.968
C   -0.8   6.362   -12.001
O   0.045   6.132   -12.888
O   -1.897   5.764   -11.931
O   -1.197   10.4   -12.088
H   0.595   9.362   -9.509
H   1.075   8.246   -12.112
H   0.079   7.015   -10.253
H   -1.324   7.777   -10.594
H   12.8944   3.49382   0.825107
