360

C   8.157   4.942   8.421
O   8.684   6.041   8.214
N   7.788   4.528   9.633
C   8.031   5.324   10.847
C   7.176   6.583   10.915
O   7.575   7.586   11.516
H   7.316   3.6   9.651
H   7.845   4.748   11.661
H   9.011   5.582   10.88
N   6.001   6.539   10.286
C   5.125   7.7   10.198
C   5.545   8.706   9.131
O   4.877   9.728   8.953
H   5.769   5.613   9.869
H   4.175   7.389   10.004
H   5.097   8.169   11.102
N   6.647   8.431   8.432
C   7.1   9.285   7.316
C   6.675   8.665   5.99
O   6.605   7.449   5.887
C   8.599   9.444   7.347
H   7.155   7.578   8.732
H   6.668   10.182   7.408
H   8.841   10.415   7.285
H   8.964   9.071   8.202
H   9.01   8.955   6.575
N   6.403   9.487   4.977
C   6.209   8.964   3.609
C   7.566   8.926   2.95
O   8.214   9.971   2.808
C   5.266   9.841   2.779
C   3.775   9.802   3.047
C   3.089   10.941   2.287
C   3.209   8.424   2.647
H   6.341   10.485   5.217
H   5.853   8.041   3.678
H   5.569   10.801   2.896
H   5.406   9.595   1.807
H   3.608   9.916   4.022
H   3.256   10.832   1.308
H   2.107   10.912   2.466
H   3.462   11.815   2.596
H   3.664   7.718   3.185
H   2.228   8.411   2.828
H   3.378   8.274   1.676
N   8.004   7.728   2.56
C   9.338   7.558   1.986
C   9.215   7.161   0.535
O   8.642   6.114   0.228
C   10.164   6.495   2.759
C   11.537   6.288   2.118
C   10.312   6.909   4.228
H   7.335   6.952   2.696
H   9.81   8.441   2.034
H   9.677   5.629   2.69
H   11.846   7.148   1.715
H   12.187   5.992   2.817
H   11.468   5.59   1.407
H   10.902   6.252   4.692
H   10.718   7.82   4.269
H   9.41   6.918   4.655
N   9.751   7.997   -0.351
C   9.718   7.72   -1.787
C   11.114   7.355   -2.286
O   12.067   8.099   -2.056
C   9.224   8.964   -2.527
C   9.291   8.87   -4.041
C   8.697   10.085   -4.718
H   10.186   8.846   0.057
H   9.122   6.927   -1.936
H   8.268   9.134   -2.267
H   9.78   9.751   -2.238
H   10.248   8.787   -4.315
H   8.786   8.06   -4.335
O   8.487   11.122   -4.087
N   8.413   9.96   -6.01
H   7.998   10.73   -6.531
H   8.618   9.078   -6.476
N   11.221   6.225   -2.977
C   12.468   5.859   -3.656
C   12.256   5.916   -5.17
O   11.303   5.319   -5.688
C   12.995   4.462   -3.218
C   14.331   4.164   -3.951
C   13.199   4.427   -1.721
H   10.369   5.638   -2.995
H   13.164   6.535   -3.416
H   12.348   3.785   -3.527
H   15.081   4.282   -3.308
H   14.309   3.227   -4.285
H   14.426   4.799   -4.711
H   13.567   5.306   -1.412
H   12.323   4.256   -1.267
H   13.843   3.696   -1.487
N   13.108   6.676   -5.863
C   13.058   6.78   -7.329
C   14.247   6.038   -7.901
O   15.379   6.276   -7.48
C   13.138   8.235   -7.795
C   12.021   9.146   -7.277
C   12.191   10.584   -7.74
H   13.805   7.185   -5.282
H   12.227   6.325   -7.637
H   14.015   8.624   -7.493
H   13.108   8.255   -8.801
H   11.149   8.802   -7.616
H   12.033   9.126   -6.281
O   13.308   11.057   -7.917
N   11.079   11.286   -7.927
H   11.116   12.255   -8.222
H   10.18   10.831   -7.769
N   13.987   5.154   -8.856
C   15.063   4.398   -9.505
C   15.046   4.614   -11.001
O   13.975   4.59   -11.633
C   14.948   2.901   -9.204
C   15.275   2.563   -7.765
C   15.177   1.078   -7.512
C   15.555   0.783   -6.061
N   15.507   -0.687   -5.797
H   12.988   5.045   -9.098
H   15.945   4.716   -9.136
H   14.014   2.618   -9.392
H   15.583   2.417   -9.797
H   16.207   2.868   -7.561
H   14.633   3.04   -7.162
H   14.247   0.781   -7.658
H   15.809   0.601   -8.101
H   16.479   1.117   -5.894
H   14.91   1.246   -5.458
H   15.628   -0.849   -4.819
H   14.623   -1.045   -6.092
H   16.239   -1.136   -6.306
N   16.234   4.84   -11.561
C   16.372   5.069   -13.001
C   17.84   4.877   -13.375
O   18.731   5.259   -12.613
C   15.882   6.478   -13.39
C   16.897   7.565   -13.112
C   17.654   8.235   -14.035
C   17.279   8.084   -11.83
N   18.481   9.138   -13.41
C   18.28   9.059   -12.056
C   16.88   7.816   -10.508
C   18.887   9.772   -11.013
C   17.488   8.535   -9.465
C   18.482   9.49   -9.728
H   17.035   4.84   -10.903
H   15.846   4.368   -13.473
H   15.694   6.495   -14.361
H   15.072   6.692   -12.864
H   17.613   8.089   -15.023
H   19.123   9.751   -13.866
H   16.186   7.138   -10.305
H   19.59   10.459   -11.213
H   17.202   8.356   -8.533
H   18.901   9.973   -8.959
N   18.073   4.28   -14.543
C   19.428   4.132   -15.091
C   20.424   3.563   -14.082
O   21.587   4.005   -14.03
C   19.938   5.481   -15.61
C   19.142   5.999   -16.796
O   18.39   5.217   -17.417
O   19.261   7.202   -17.11
H   17.223   3.931   -15.03
H   19.366   3.468   -15.854
H   19.871   6.14   -14.869
H   20.885   5.365   -15.887
N   19.955   2.607   -13.281
C   20.755   1.954   -12.246
C   21.114   2.825   -11.05
O   21.96   2.448   -10.233
H   18.949   2.359   -13.459
H   20.253   1.123   -11.914
H   21.619   1.599   -12.67
N   20.471   3.986   -10.947
C   20.694   4.922   -9.851
C   19.447   4.978   -8.972
O   18.385   4.489   -9.362
C   20.996   6.316   -10.409
C   22.238   6.361   -11.318
C   22.432   7.728   -11.924
C   22.009   7.754   -13.387
N   22.475   9.007   -14.058
H   19.791   4.169   -11.722
H   21.463   4.6   -9.297
H   20.215   6.618   -10.944
H   21.152   6.934   -9.646
H   23.039   6.123   -10.768
H   22.121   5.686   -12.046
H   21.878   8.389   -11.426
H   23.394   7.978   -11.872
H   22.406   6.966   -13.855
H   21.012   7.707   -13.439
H   22.345   8.919   -15.044
H   21.944   9.78   -13.715
H   23.443   9.147   -13.856
N   19.582   5.577   -7.788
C   18.415   5.774   -6.925
C   18.567   7.001   -6.068
O   19.678   7.402   -5.713
C   18.144   4.541   -6.052
O   19.093   4.429   -5.026
H   20.534   5.874   -7.546
H   17.611   5.899   -7.523
H   17.234   4.63   -5.655
H   18.184   3.731   -6.632
H   18.632   4.391   -4.138
N   17.436   7.6   -5.727
C   17.422   8.703   -4.79
C   16.206   8.51   -3.894
O   15.215   7.893   -4.312
C   17.424   10.086   -5.499
O   17.578   11.127   -4.527
C   16.141   10.324   -6.298
H   16.584   7.217   -6.181
H   18.237   8.659   -4.225
H   18.219   10.121   -6.136
H   16.369   10.723   -7.188
H   15.665   9.454   -6.436
H   15.544   10.952   -5.796
H   18.012   10.767   -3.694
N   16.29   9.015   -2.669
C   15.195   8.869   -1.714
C   14.694   10.238   -1.274
O   15.493   11.132   -0.946
C   15.633   8.01   -0.483
O   15.965   6.682   -0.926
C   14.523   7.912   0.566
H   17.175   9.508   -2.455
H   14.44   8.385   -2.166
H   16.464   8.431   -0.079
H   13.638   8.094   0.136
H   14.516   6.993   0.963
H   14.685   8.584   1.29
H   16.548   6.725   -1.743
N   13.371   10.396   -1.299
C   12.706   11.621   -0.843
C   11.822   11.243   0.342
O   10.891   10.455   0.196
C   11.855   12.26   -1.969
C   12.72   12.582   -3.208
C   11.174   13.521   -1.481
C   12.625   11.544   -4.353
H   12.846   9.572   -1.671
H   13.42   12.21   -0.489
H   11.165   11.599   -2.244
H   12.442   13.47   -3.567
H   13.674   12.636   -2.919
H   10.59   13.89   -2.204
H   10.614   13.313   -0.679
H   11.863   14.203   -1.234
H   11.68   11.496   -4.655
H   13.214   11.842   -5.096
H   12.924   10.663   -4.004
N   12.152   11.769   1.521
C   11.4   11.474   2.727
C   10.538   12.68   3.094
O   11.045   13.797   3.18
C   12.366   11.159   3.867
C   11.693   10.782   5.158
C   12.702   10.23   6.154
C   13.039   11.26   7.197
N   11.974   11.322   8.231
H   12.981   12.397   1.497
H   10.798   10.691   2.558
H   12.95   10.4   3.576
H   12.932   11.97   4.024
H   11.26   11.589   5.557
H   11.001   10.083   4.984
H   12.307   9.435   6.599
H   13.529   9.981   5.664
H   13.906   11.018   7.634
H   13.125   12.157   6.762
H   12.393   11.402   9.136
H   11.391   12.117   8.061
H   11.422   10.489   8.191
N   9.248   12.461   3.322
C   8.371   13.536   3.786
C   7.942   13.192   5.197
O   7.329   12.145   5.426
C   7.154   13.708   2.867
C   7.486   14.185   1.434
C   6.26   14.044   0.539
N   6.426   14.664   -0.778
C   6.933   14.059   -1.854
N   7.357   12.794   -1.795
N   7.025   14.726   -3.006
H   8.926   11.494   3.149
H   8.885   14.386   3.8
H   6.69   12.83   2.79
H   6.545   14.383   3.272
H   7.747   15.137   1.464
H   8.209   13.622   1.068
H   6.075   13.067   0.421
H   5.485   14.472   1.008
H   6.133   15.627   -0.881
H   7.28   12.279   -0.945
H   7.751   12.365   -2.608
H   6.694   15.669   -3.057
H   7.419   14.286   -3.808
N   8.278   14.057   6.149
C   7.925   13.79   7.537
C   7.222   14.968   8.191
O   7.382   16.121   7.78
C   9.15   13.344   8.351
C   10.219   14.397   8.571
C   11.399   13.838   9.4
C   12.657   14.707   9.274
N   13.794   14.22   10.142
H   8.786   14.892   5.831
H   7.308   12.987   7.567
H   8.824   13.031   9.25
H   9.567   12.562   7.873
H   10.575   14.701   7.69
H   9.831   15.171   9.066
H   11.126   13.811   10.355
H   11.61   12.925   9.071
H   12.958   14.704   8.317
H   12.43   15.648   9.539
H   14.628   14.204   9.598
H   13.898   14.843   10.912
H   13.579   13.304   10.468
N   6.422   14.655   9.195
C   5.756   15.683   9.972
C   6.593   15.923   11.224
O   7.027   14.981   11.887
C   4.321   15.257   10.32
C   3.359   15.17   9.124
C   3.179   16.486   8.359
N   3.323   17.642   9.242
C   2.346   18.135   9.993
N   1.137   17.6   9.942
N   2.578   19.169   10.783
H   6.315   13.639   9.373
H   5.723   16.525   9.445
H   4.357   14.356   10.746
H   3.945   15.92   10.963
H   3.702   14.481   8.477
H   2.454   14.878   9.452
H   3.872   16.522   7.649
H   2.269   16.483   7.961
H   4.223   18.093   9.282
H   0.94   16.814   9.363
H   0.395   17.994   10.502
H   3.499   19.567   10.828
H   1.843   19.557   11.337
N   6.859   17.186   11.523
C   7.639   17.549   12.697
C   9.114   17.757   12.322
C   10.023   17.897   13.54
O   9.557   18.371   14.603
O   11.211   17.52   13.44
H   6.469   17.884   10.857
H   7.505   16.837   13.376
H   9.41   16.97   11.794
H   9.179   18.586   11.781
H   7.92108   4.28659   7.60854
H   7.19807   18.4639   13.0977
