259
0.xyz
N              -2.253              8.359               5.568               
C              -1.386              9.569               5.472               
C              -2.182              10.853              5.731               
O              -1.901              11.891              5.13                
C              -0.73               9.637               4.094               
S              -0.757              8.073               3.225               
H              -3.206              8.644               5.632               
H              -0.675              9.489               6.177               
H              -1.221              10.312              3.553               
H              0.217               9.917               4.219               
H              -2.122              7.798               4.755               
H              -2                  7.84                6.381               
H              -1.355              8.138               2.422               
N              -3.176              10.77               6.618               
C              -3.985              11.936              7.013               
C              -3.157              13.108              7.553               
O              -3.497              14.271              7.322               
C              -5.017              11.538              8.072               
C              -6.309              10.997              7.468               
O              -6.447              10.962              6.218               
O              -7.205              10.62               8.262               
H              -3.332              9.817               7.006               
H              -4.453              12.267              6.175               
H              -4.616              10.832              8.644               
H              -5.233              12.343              8.611               
N              -2.086              12.788              8.277               
C              -1.184              13.8                8.843               
C              -0.579              14.677              7.743               
O              -0.182              15.813              7.997               
C              -0.081              13.135              9.642               
H              -1.941              11.764              8.408               
H              -1.711              14.387              9.467               
H              -0.476              12.646              10.421              
H              0.412               12.486              9.061               
H              0.558               13.829              9.977               
N              -0.523              14.142              6.524               
C              0.116               14.849              5.414               
C              -0.827              15.72               4.591               
O              -0.371              16.605              3.864               
C              0.882               13.849              4.516               
C              2.069               13.244              5.194               
C              3.283               13.936              5.242               
C              1.966               12.02               5.844               
C              4.378               13.4                5.9                 
C              3.066               11.479              6.513               
C              4.271               12.171              6.535               
H              -0.959              13.209              6.434               
H              0.807               15.475              5.825               
H              0.255               13.128              4.279               
H              1.192               14.345              3.724               
H              3.36                14.824              4.799               
H              1.102               11.523              5.835               
H              5.249               13.906              5.913               
H              2.978               10.585              6.976               
H              5.063               11.785              7.009               
N              -2.134              15.466              4.702               
C              -3.114              16.152              3.864               
C              -3.1                17.652              4.122               
O              -3.092              18.084              5.28                
C              -4.538              15.579              4.074               
C              -5.589              16.418              3.335               
C              -4.571              14.12               3.611               
H              -2.382              14.759              5.415               
H              -2.863              15.999              2.901               
H              -4.749              15.643              5.045               
H              -6.493              16.026              3.495               
H              -5.562              17.354              3.679               
H              -5.386              16.411              2.358               
H              -5.086              13.58               4.274               
H              -5.012              14.072              2.717               
H              -3.635              13.778              3.547               
N              -3.096              18.426              3.044               
C              -3.194              19.877              3.146               
C              -2.456              20.592              2.037               
O              -1.975              19.963              1.107               
H              -3.019              17.919              2.141               
H              -4.173              20.146              3.128               
H              -2.823              20.173              4.044               
N              -2.4                21.917              2.142               
C              -1.651              22.776              1.233               
C              -0.503              23.379              2.032               
O              -0.728              24.007              3.077               
C              -2.552              23.902              0.65                
O              -3.631              23.306              -0.079              
C              -1.765              24.826              -0.278              
H              -2.954              22.3                2.954               
H              -1.27               22.218              0.506               
H              -2.941              24.435              1.423               
H              -1.194              25.443              0.266               
H              -1.181              24.28               -0.881              
H              -2.4                25.366              -0.833              
H              -3.655              22.313              0.08                
N              0.718               23.145              1.552               
C              1.944               23.456              2.287               
C              2.767               24.466              1.485               
O              2.882               24.341              0.268               
C              2.751               22.168              2.502               
C              1.981               21.107              3.267               
C              1.164               20.129              2.749               
C              1.948               20.95               4.686               
N              0.623               19.367              3.776               
C              1.101               19.844              4.972               
C              2.576               21.622              5.752               
C              0.861               19.401              6.282               
C              2.333               21.188              7.051               
C              1.486               20.085              7.305               
H              0.725               22.716              0.595               
H              1.684               23.894              3.146               
H              2.982               21.78               1.624               
H              3.559               22.376              3.031               
H              0.984               19.985              1.783               
H              -0.004              18.606              3.661               
H              3.183               22.391              5.584               
H              0.259               18.621              6.451               
H              2.761               21.662              7.811               
H              1.343               19.802              8.252               
N              3.33                25.471              2.146               
C              4.163               26.449              1.421               
C              5.61                26.339              1.876               
O              5.882               26.081              3.045               
C              3.639               27.889              1.581               
C              3.604               28.395              2.999               
C              3.157               29.863              3.036               
C              3.363               30.472              4.418               
N              2.442               29.909              5.46                
H              3.148               25.51               3.151               
H              4.111               26.246              0.441               
H              4.23                28.489              1.039               
H              2.71                27.917              1.204               
H              2.957               27.857              3.532               
H              4.513               28.334              3.402               
H              3.696               30.374              2.378               
H              2.192               29.907              2.809               
H              4.316               30.311              4.706               
H              3.217               31.468              4.361               
H              2.848               29.08               5.84                
H              2.314               30.586              6.182               
H              1.564               29.694              5.037               
N              6.534               26.515              0.937               
C              7.948               26.378              1.237               
C              8.417               27.495              2.154               
O              8.143               28.68               1.906               
C              8.749               26.397              -0.06               
C              10.256              26.223              0.108               
C              10.623              24.784              0.48                
C              10.97               26.657              -1.17               
H              6.163               26.752              -0.002              
H              8.095               25.499              1.706               
H              8.426               25.652              -0.632              
H              8.597               27.271              -0.502              
H              10.579              26.84               0.831               
H              10.313              24.167              -0.242              
H              11.614              24.712              0.58                
H              10.179              24.543              1.342               
H              10.765              27.618              -1.355              
H              11.956              26.541              -1.055              
H              10.654              26.095              -1.934              
N              9.11                27.125              3.224               
C              9.667               28.153              4.117               
C              11.195              28.156              4.251               
O              11.78               29.191              4.598               
C              8.971               28.182              5.491               
C              7.495               28.541              5.304               
C              9.157               26.873              6.227               
H              9.219               26.12               3.368               
H              9.387               29.066              3.75                
H              9.378               28.911              6.023               
H              7.424               29.479              4.97                
H              7.085               27.916              4.642               
H              7.022               28.459              6.18                
H              9.877               26.338              5.782               
H              9.417               27.057              7.176               
H              8.3                 26.356              6.211               
N              11.841              27.024              3.986               
C              13.311              26.985              3.96                
C              13.831              25.912              3.015               
O              13.152              24.918              2.75                
C              13.902              26.784              5.361               
O              13.63               25.482              5.862               
H              11.245              26.203              3.806               
H              13.636              27.88               3.627               
H              14.889              26.912              5.314               
H              13.5                27.457              5.977               
H              12.646              25.379              5.999               
N              15.038              26.135              2.505               
C              15.7                25.197              1.615               
C              17.193              25.2                1.926               
O              17.834              26.276              1.965               
C              15.445              25.581              0.155               
O              15.994              24.624              -0.727              
H              15.467              27.043              2.801               
H              15.35               24.281              1.804               
H              14.462              25.636              0.007               
H              15.867              26.466              -0.02               
H              16.042              23.736              -0.271              
N              17.731              24.019              2.191               
C              19.147              23.852              2.528               
C              19.786              22.774              1.647               
O              19.262              21.662              1.532               
C              19.294              23.464              3.995               
C              18.869              24.538              5.01                
C              18.709              23.959              6.408               
O              17.713              23.237              6.641               
O              19.577              24.211              7.277               
H              17.064              23.216              2.14                
H              19.631              24.721              2.394               
H              18.727              22.67               4.16                
H              20.247              23.266              4.166               
H              19.572              25.215              5.045               
H              18.002              24.891              4.732               
N              20.931              23.12               1.041               
C              21.748              22.194              0.249               
C              21.059              21.656              -1.015              
O              21.458              20.636              -1.552              
C              22.322              21.047              1.11                
C              23.594              20.455              0.526               
O              24.466              21.174              0.02                
N              23.708              19.129              0.591               
H              21.196              24.126              1.185               
H              22.567              22.712              -0.063              
H              22.523              21.41               2.014               
H              21.633              20.332              1.169               
H              22.976              18.585              1.001               
H              24.524              18.679              0.229               
N              20.047              22.372              -1.489              
C              19.252              21.921              -2.64               
C              20.065              21.87               -3.945              
O              19.967              20.907              -4.715              
C              18.038              22.842              -2.779              
C              16.983              22.348              -3.736              
C              16.672              20.985              -3.85               
C              16.253              23.269              -4.483              
C              15.67               20.554              -4.736              
C              15.243              22.844              -5.364              
C              14.958              21.49               -5.486              
H              19.865              23.263              -0.989              
H              18.964              20.972              -2.443              
H              17.62               22.93               -1.885              
H              18.359              23.72               -3.108              
H              17.157              20.318              -3.304              
H              16.444              24.244              -4.396              
H              15.477              19.575              -4.822              
H              14.735              23.53               -5.901              
H              14.242              21.179              -6.111              
N              20.89               22.894              -4.186              
C              21.695              22.909              -5.416              
C              22.638              21.704              -5.512              
O              22.692              21.032              -6.554              
C              22.489              24.21               -5.548              
C              23.002              24.431              -6.964              
O              22.195              24.316              -7.908              
O              24.212              24.73               -7.119              
H              20.91               23.628              -3.475              
H              21.051              22.841              -6.192              
H              21.891              24.962              -5.306              
H              23.264              24.163              -4.933              
N              23.363              21.418              -4.427              
H              23.232              22.067              -3.632              
H              23.9875             20.6207             -4.40618            
