210

C   13.232   9.803   8.216
O   13.153   10.559   9.185
N   14.347   9.174   7.862
C   15.61   9.445   8.561
C   15.839   10.951   8.535
O   15.63   11.593   7.499
C   16.784   8.692   7.945
C   16.874   7.219   8.336
C   17.805   6.432   7.438
O   17.388   5.58   6.649
N   19.101   6.711   7.546
H   14.255   8.506   7.086
H   15.501   9.166   9.508
H   16.712   8.74   6.944
H   17.64   9.138   8.227
H   17.209   7.16   9.276
H   15.959   6.82   8.281
H   19.79   6.213   6.985
H   19.395   7.433   8.2
N   16.239   11.516   9.67
C   16.281   12.956   9.843
C   17.076   13.733   8.808
O   16.602   14.821   8.447
C   16.837   13.3   11.244
C   17.174   14.784   11.347
C   16.532   15.423   12.564
C   16.451   16.937   12.438
N   15.059   17.377   12.14
H   16.516   10.839   10.414
H   15.314   13.313   9.84
H   16.145   13.087   11.908
H   17.659   12.778   11.382
H   18.168   14.886   11.411
H   16.846   15.249   10.523
H   15.607   15.065   12.668
H   17.075   15.202   13.371
H   16.75   17.351   13.298
H   17.055   17.235   11.698
H   15.085   18.156   11.515
H   14.558   16.624   11.716
H   14.607   17.644   12.99
N   18.235   13.317   8.32
C   18.913   14.098   7.285
C   18.075   14.199   6.004
O   18.167   15.208   5.304
C   20.191   13.317   6.989
C   20.386   12.432   8.171
C   19.01   12.123   8.695
H   19.148   15.019   7.626
H   20.089   12.776   6.147
H   20.97   13.942   6.874
H   20.865   11.585   7.905
H   20.94   12.897   8.874
H   18.629   11.307   8.263
H   19.014   12.004   9.688
N   17.287   13.176   5.716
C   16.486   13.15   4.491
C   15.315   14.123   4.641
O   14.962   14.929   3.775
C   15.977   11.737   4.203
C   15.274   11.587   2.852
C   13.929   11.88   2.686
C   16.008   11.15   1.759
C   13.33   11.76   1.442
C   15.423   11.033   0.513
C   14.09   11.349   0.36
H   17.283   12.41   6.415
H   17.062   13.504   3.757
H   16.751   11.123   4.201
H   15.323   11.495   4.902
H   13.386   12.181   3.464
H   16.976   10.917   1.877
H   12.354   11.969   1.334
H   15.973   10.717   -0.275
H   13.658   11.283   -0.548
N   14.681   13.998   5.8
C   13.593   14.879   6.183
C   14.013   16.338   6.108
O   13.341   17.169   5.496
C   13.14   14.507   7.599
C   12.082   15.45   8.155
C   11.804   15.189   9.626
O   11.444   14.043   9.963
O   11.962   16.156   10.395
H   15.03   13.221   6.402
H   12.801   14.727   5.576
H   12.749   13.609   7.561
H   13.922   14.557   8.186
H   12.414   16.367   8.074
H   11.247   15.302   7.665
N   15.14   16.679   6.739
C   15.583   18.072   6.75
C   15.837   18.589   5.342
O   15.387   19.694   5.012
C   16.816   18.22   7.647
C   16.456   18.094   9.122
O   15.284   18.295   9.527
O   17.374   17.779   9.913
H   15.643   15.909   7.194
H   14.829   18.62   7.136
H   17.454   17.502   7.414
H   17.205   19.114   7.491
N   16.519   17.84   4.48
C   16.757   18.334   3.122
C   15.45   18.506   2.344
O   15.27   19.464   1.592
C   17.705   17.413   2.361
H   16.845   16.936   4.831
H   17.215   19.232   3.18
H   17.838   16.57   2.88
H   17.313   17.196   1.468
H   18.585   17.87   2.237
N   14.533   17.565   2.518
C   13.275   17.618   1.771
C   12.47   18.846   2.126
O   11.98   19.557   1.248
C   12.463   16.364   2.078
O   13.148   15.195   1.674
H   14.77   16.827   3.192
H   13.503   17.662   0.788
H   12.297   16.32   3.061
H   11.594   16.416   1.59
H   13.851   14.969   2.348
N   12.324   19.105   3.435
C   11.472   20.213   3.849
C   12.17   21.543   3.587
O   11.56   22.607   3.635
C   11.075   20.088   5.317
C   9.852   19.205   5.526
C   9.976   17.843   5.761
C   8.584   19.752   5.477
C   8.875   17.037   5.955
C   7.482   18.947   5.682
C   7.611   17.593   5.913
H   12.834   18.491   4.068
H   10.658   20.193   3.263
H   11.823   19.678   5.806
H   10.854   20.984   5.655
H   10.893   17.433   5.792
H   8.466   20.724   5.295
H   8.996   16.053   6.124
H   6.547   19.37   5.66
H   6.807   17.021   6.049
N   13.463   21.51   3.279
C   14.111   22.782   2.942
C   13.984   23.079   1.456
O   14.334   24.149   0.969
C   15.574   22.774   3.374
H   13.918   20.611   3.296
H   13.66   23.518   3.46
H   15.748   21.972   3.944
H   16.159   22.742   2.565
H   15.771   23.603   3.896
N   13.482   22.139   0.649
C   13.373   22.489   -0.77
C   12.066   23.203   -1.09
O   11.038   22.98   -0.451
C   13.463   21.231   -1.646
C   14.678   20.324   -1.424
C   14.469   18.974   -2.105
C   15.948   21.006   -1.909
H   13.217   21.269   1.062
H   14.14   23.105   -1.005
H   12.647   20.682   -1.474
H   13.481   21.525   -2.598
H   14.804   20.184   -0.443
H   14.342   19.113   -3.087
H   15.27   18.396   -1.95
H   13.658   18.531   -1.723
H   16.084   21.859   -1.404
H   16.732   20.402   -1.757
H   15.868   21.207   -2.886
N   12.134   24.042   -2.115
C   10.968   24.636   -2.744
C   10.354   23.604   -3.689
O   11.076   22.729   -4.17
C   11.322   25.85   -3.584
C   11.294   27.214   -2.932
C   11.627   28.274   -3.989
N   13.075   28.326   -4.2
C   13.796   29.404   -3.9
N   13.193   30.473   -3.399
N   15.105   29.41   -4.106
H   13.117   24.242   -2.436
H   10.296   24.864   -2.044
H   12.257   25.708   -3.961
H   10.688   25.876   -4.379
H   10.392   27.405   -2.585
H   11.979   27.266   -2.226
H   11.179   28.018   -4.829
H   11.309   29.146   -3.655
H   13.531   27.532   -4.579
H   12.215   30.488   -3.22
H   13.741   31.298   -3.19
H   15.551   28.588   -4.472
H   15.645   30.222   -3.9
N   9.062   23.703   -3.983
C   8.542   22.745   -4.973
C   7.025   22.934   -5.101
O   6.436   22.632   -3.823
C   6.439   21.95   -6.093
H   8.529   24.411   -3.522
H   8.728   21.821   -4.641
H   6.828   23.904   -5.317
H   5.439   22.037   -6.113
H   6.8   22.133   -7.012
H   6.68   21.012   -5.829
H   7.122   22.222   -3.214
H   9.0612   22.8886   -5.9202
H   12.363   9.65433   7.61085
