316
3.xyz
C              5.596               28.972              20.753              
O              6.312               29.619              19.983              
N              5.085               29.501              21.866              
C              5.337               30.901              22.236              
C              6.839               31.238              22.347              
O              7.228               32.39               22.124              
C              4.619               31.255              23.547              
C              3.106               31.135              23.613              
C              2.458               31.489              24.907              
O              3.074               31.865              25.898              
O              1.218               31.35               24.877              
H              4.509               28.856              22.434              
H              4.912               31.513              21.549              
H              4.998               30.658              24.261              
H              4.854               32.207              23.765              
H              2.725               31.733              22.904              
H              2.868               30.184              23.4                
N              7.667               30.242              22.682              
C              9.119               30.434              22.837              
C              9.949               30.008              21.621              
O              11.168              29.83               21.726              
C              9.621               29.686              24.077              
C              8.932               30.141              25.353              
O              8.983               31.356              25.68               
O              8.341               29.276              26.037              
H              7.2                 29.322              22.824              
H              9.272               31.432              22.964              
H              9.441               28.719              23.945              
H              10.595              29.853              24.163              
N              9.286               29.851              20.479              
C              9.931               29.495              19.224              
C              9.8                 30.619              18.193              
O              9.618               30.365              17                  
C              9.278               28.222              18.662              
S              9.636               26.798              19.647              
H              8.251               30.007              20.562              
H              10.913              29.35               19.399              
H              8.298               28.373              18.643              
H              9.631               28.087              17.745              
H              10.011              26.059              19.075              
N              9.9                 31.86               18.644              
C              9.71                33.001              17.759              
C              10.681              32.925              16.578              
O              10.258              32.924              15.418              
C              9.9                 34.312              18.528              
C              8.986               34.473              19.732              
C              7.52                34.416              19.368              
C              6.606               34.575              20.553              
N              5.182               34.513              20.144              
H              10.119              31.946              19.653              
H              8.771               32.988              17.402              
H              10.847              34.352              18.845              
H              9.727               35.069              17.898              
H              9.188               33.74               20.393              
H              9.18                35.358              20.172              
H              7.323               35.15               18.709              
H              7.33                33.532              18.931              
H              6.79                33.843              21.213              
H              6.783               35.46               20.992              
H              4.854               35.435              19.936              
H              5.093               33.937              19.331              
H              4.637               34.125              20.888              
N              11.974              32.824              16.871              
C              12.985              32.932              15.826              
C              12.896              31.763              14.845              
O              12.883              31.985              13.626              
C              14.398              33.073              16.411              
C              14.709              34.259              17.309              
C              16.093              34.349              17.851              
O              16.974              33.531              17.612              
O              16.256              35.344              18.586              
H              12.19               32.668              17.868              
H              12.864              33.798              15.324              
H              14.582              32.24               16.942              
H              15.037              33.109              15.637              
H              14.529              35.092              16.78               
H              14.075              34.225              18.086              
N              12.797              30.53               15.345              
C              12.667              29.368              14.433              
C              11.359              29.404              13.609              
O              11.364              28.985              12.447              
C              12.854              27.974              15.143              
C              14.332              27.762              15.492              
C              11.941              27.825              16.384              
H              12.817              30.454              16.363              
H              13.439              29.398              13.784              
H              12.604              27.279              14.487              
H              14.792              28.647              15.524              
H              14.398              27.315              16.382              
H              14.755              27.188              14.794              
H              11.493              28.698              16.555              
H              11.264              27.119              16.197              
H              12.504              27.566              17.163              
N              10.269              29.923              14.185              
C              8.998               30.087              13.428              
C              9.153               31.108              12.301              
O              8.748               30.871              11.165              
C              7.852               30.53               14.338              
C              6.946               29.495              15.004              
C              5.963               30.199              15.926              
C              6.211               28.684              13.947              
H              10.375              30.195              15.172              
H              8.76                29.198              13.027              
H              8.255               31.092              15.083              
H              7.252               31.142              13.795              
H              7.506               28.866              15.534              
H              5.404               30.837              15.395              
H              5.369               29.522              16.362              
H              6.465               30.703              16.629              
H              6.875               28.212              13.366              
H              5.621               28.01               14.393              
H              5.652               29.295              13.385              
N              9.741               32.248              12.623              
C              10.02               33.259              11.61               
C              10.93               32.746              10.478              
O              10.633              32.973              9.305               
C              10.616              34.512              12.25               
C              10.258              35.777              11.49               
C              8.749               35.784              11.107              
C              10.613              36.964              12.329              
H              9.979               32.358              13.623              
H              9.143               33.553              11.194              
H              10.25               34.592              13.158              
H              11.593              34.421              12.243              
H              10.795              35.831              10.65               
H              8.21                35.739              11.942              
H              8.552               36.624              10.612              
H              8.564               34.993              10.533              
H              11.597              36.964              12.532              
H              10.384              37.814              11.844              
H              10.105              36.941              13.196              
N              12.011              32.055              10.832              
C              12.907              31.432              9.843               
C              12.104              30.539              8.891               
O              12.283              30.553              7.685               
C              13.995              30.592              10.536              
C              14.951              31.277              11.497              
C              15.985              30.42               12.142              
O              16.099              29.217              11.938              
O              16.718              31.059              12.924              
H              12.171              31.991              11.858              
H              13.374              32.146              9.318               
H              13.525              29.866              11.047              
H              14.548              30.171              9.811               
H              15.424              32                  10.988              
H              14.401              31.696              12.224              
N              11.185              29.775              9.442               
C              10.358              28.916              8.626               
C              9.428               29.695              7.725               
O              9.389               29.467              6.514               
C              9.538               28.004              9.515               
C              8.501               27.241              8.782               
C              8.849               26.115              8.039               
C              7.17                27.651              8.822               
C              7.867               25.408              7.343               
C              6.193               26.96               8.14                
C              6.528               25.825              7.414               
H              11.11               29.842              10.472              
H              10.981              28.391              8.021               
H              10.157              27.359              9.942               
H              9.088               28.567              10.196              
H              9.789               25.811              8.002               
H              6.926               28.463              9.359               
H              8.119               24.609              6.796               
H              5.232               27.281              8.167               
H              5.826               25.299              6.94                
N              8.662               30.594              8.328               
C              7.788               31.476              7.579               
C              8.513               32.216              6.46                
O              7.998               32.28               5.351               
C              7.129               32.497              8.507               
C              6.009               31.865              9.351               
C              5.18                32.935              10.038              
N              4.448               32.392              11.191              
C              4.593               32.782              12.467              
N              5.457               33.743              12.812              
N              3.855               32.198              13.42               
H              8.743               30.609              9.365               
H              7.041               30.925              7.166               
H              7.81                32.848              9.125               
H              6.727               33.209              7.959               
H              5.415               31.337              8.757               
H              6.416               31.286              10.047              
H              5.792               33.653              10.351              
H              4.528               33.295              9.38                
H              3.773               31.657              11.009              
H              5.995               34.198              12.104              
H              5.558               34                  13.769              
H              3.193               31.494              13.167              
H              3.969               32.468              14.372              
N              9.697               32.765              6.734               
C              10.453              33.467              5.679               
C              10.81               32.527              4.509               
O              10.615              32.85               3.334               
C              11.717              34.142              6.254               
C              11.466              35.17               7.34                
C              12.752              35.783              7.846               
C              12.527              36.812              8.931               
N              13.815              37.383              9.395               
H              10.025              32.663              7.699               
H              9.886               34.219              5.322               
H              12.304              33.42               6.627               
H              12.195              34.59               5.494               
H              10.881              35.898              6.971               
H              10.992              34.728              8.106               
H              13.335              35.055              8.214               
H              13.225              36.225              7.081               
H              11.951              37.547              8.571               
H              12.062              36.378              9.704               
H              14.058              36.984              10.28               
H              14.532              37.175              8.728               
H              13.726              38.375              9.49                
N              11.321              31.363              4.855               
C              11.624              30.305              3.879               
C              10.416              30                  2.965               
O              10.526              30.046              1.746               
C              12.073              29.041              4.618               
C              13.304              29.197              5.493               
C              13.68               27.906              6.184               
C              14.903              28.04               7.06                
N              15.231              26.75               7.715               
H              11.496              31.246              5.879               
H              12.391              30.607              3.299               
H              11.312              28.734              5.197               
H              12.261              28.331              3.931               
H              14.073              29.497              4.921               
H              13.124              29.899              6.188               
H              12.91               27.608              6.754               
H              13.861              27.206              5.488               
H              15.68               28.331              6.498               
H              14.73               28.732              7.763               
H              16.166              26.483              7.478               
H              15.155              26.85               8.707               
H              14.594              26.045              7.401               
N              9.253               29.758              3.554               
C              8.038               29.518              2.765               
C              7.74                30.719              1.848               
O              7.498               30.564              0.645               
C              6.797               29.209              3.679               
C              6.984               27.901              4.457               
C              5.519               29.149              2.877               
C              7.348               26.656              3.615               
H              9.271               29.752              4.587               
H              8.242               28.746              2.161               
H              6.72                29.955              4.332               
H              7.707               28.034              5.142               
H              6.131               27.699              4.95                
H              4.739               29.018              3.49                
H              5.396               30.002              2.369               
H              5.559               28.386              2.231               
H              8.205               26.834              3.145               
H              7.442               25.879              4.227               
H              6.619               26.496              2.959               
N              7.752               31.915              2.423               
C              7.622               33.139              1.633               
C              8.655               33.22               0.492               
O              8.291               33.54               -0.636              
C              7.724               34.354              2.53                
H              7.859               31.908              3.453               
H              6.697               33.166              1.222               
H              6.891               34.903              2.452               
H              7.839               34.064              3.481               
H              8.511               34.91               2.258               
N              9.928               32.941              0.779               
C              10.99               32.959              -0.274              
C              10.6                32.111              -1.499              
O              10.682              32.572              -2.645              
C              12.339              32.449              0.269               
C              13.304              33.524              0.775               
C              14.092              33.084              2.017               
O              14.565              31.922              2.06                
O              14.231              33.902              2.962               
H              10.124              32.715              1.765               
H              11.149              33.91               -0.559              
H              12.144              31.845              1.028               
H              12.792              31.966              -0.466              
H              13.956              33.711              0.067               
H              12.782              34.315              1.027               
N              10.153              30.882              -1.233              
C              9.83                29.922              -2.291              
C              8.596               30.261              -3.152              
O              8.53                29.829              -4.294              
C              9.665               28.515              -1.703              
C              10.885              28.057              -0.935              
H              10.055              30.667              -0.22               
H              10.63               29.899              -2.928              
H              8.883               28.525              -1.086              
H              9.502               27.881              -2.454              
O              12.019              28.335              -1.32               
N              10.659              27.359              0.16                
H              9.72                27.15               0.444               
H              11.426              27.03               0.718               
N              7.622               31.007              -2.633              
C              6.425               31.323              -3.431              
C              6.794               32.08               -4.704              
O              6.172               31.884              -5.748              
C              5.397               32.125              -2.618              
C              4.746               31.318              -1.486              
C              3.529               32.013              -0.863              
C              2.922               31.14               0.253               
N              1.676               31.693              0.872               
O              7.67                32.92               -4.899              
H              7.769               31.329              -1.671              
H              5.973               30.46               -3.685              
H              5.859               32.907              -2.214              
H              4.679               32.428              -3.235              
H              4.454               30.427              -1.851              
H              5.43                31.161              -0.766              
H              3.817               32.869              -0.466              
H              2.843               32.147              -1.56               
H              2.72                30.226              -0.134              
H              3.621               31.016              0.975               
H              1.927               32.329              1.599               
H              1.147               32.17               0.173               
H              1.137               30.942              1.25                
H              5.39079             27.9334             20.559              
