374
3.xyz
C              -10.508             19.46               -6.84               
O              -9.703              19.56               -5.918              
N              -10.171             19.614              -8.114              
C              -8.811              19.955              -8.507              
C              -8.589              21.443              -8.277              
O              -7.65               21.849              -7.595              
C              -8.556              19.612              -9.992              
C              -7.209              20.159              -10.444             
C              -8.622              18.088              -10.206             
H              -10.945             19.473              -8.791              
H              -8.178              19.453              -7.918              
H              -9.254              20.072              -10.531             
H              -7.239              21.158              -10.447             
H              -6.495              19.849              -9.816              
H              -7.007              19.829              -11.366             
H              -8.458              17.634              -9.334              
H              -9.527              17.851              -10.551             
H              -7.923              17.826              -10.866             
N              -9.486              22.252              -8.83               
C              -9.376              23.69               -8.726              
C              -9.311              24.183              -7.281              
O              -8.569              25.112              -6.982              
C              -10.5               24.361              -9.512              
C              -10.077             24.631              -10.943             
C              -11.105             24.203              -11.953             
O              -12.309             24.243              -11.622             
O              -10.708             23.834              -13.084             
H              -10.256             21.766              -9.333              
H              -8.546              24.009              -9.221              
H              -11.256             23.749              -9.534              
H              -10.692             25.216              -9.09               
H              -9.94               25.602              -11.044             
H              -9.25               24.124              -11.121             
N              -10.048             23.536              -6.382              
C              -10.02              23.928              -4.971              
C              -9.07               23.079              -4.139              
O              -9                  23.223              -2.905              
C              -11.435             23.966              -4.396              
C              -12.365             24.828              -5.251              
C              -13.75              25.026              -4.651              
O              -14.719             25.154              -5.433              
O              -13.868             25.072              -3.413              
H              -10.62              22.763              -6.751              
H              -9.75               24.904              -4.9                
H              -11.788             23.059              -4.402              
H              -11.392             24.369              -3.512              
H              -11.953             25.719              -5.348              
H              -12.481             24.383              -6.124              
N              -8.353              22.201              -4.834              
C              -7.17               21.524              -4.312              
C              -7.411              20.385              -3.318              
O              -6.472              19.972              -2.644              
C              -6.19               22.537              -3.704              
C              -5.81               23.699              -4.611              
C              -4.865              24.67               -3.922              
O              -3.749              24.256              -3.563              
O              -5.247              25.84               -3.722              
H              -8.716              22.033              -5.808              
H              -6.615              21.161              -5.102              
H              -6.617              22.916              -2.896              
H              -5.36               22.05               -3.478              
H              -5.346              23.34               -5.394              
H              -6.624              24.191              -4.841              
N              -8.638              19.876              -3.208              
C              -8.86               18.675              -2.385              
C              -8.284              17.425              -3.061              
O              -7.737              16.535              -2.408              
C              -10.346             18.467              -2.084              
C              -10.913             19.379              -1.029              
C              -11.575             20.577              -1.633              
H              -9.375              20.366              -3.718              
H              -8.373              18.805              -1.515              
H              -10.864             18.605              -2.936              
H              -10.478             17.513              -1.785              
H              -11.587             18.872              -0.493              
H              -10.171             19.684              -0.433              
O              -11.43              20.844              -2.829              
N              -12.318             21.314              -0.82               
H              -12.792             22.157              -1.153              
H              -12.415             21.029              0.155               
N              -8.451              17.381              -4.381              
C              -7.866              16.342              -5.219              
C              -6.505              16.823              -5.741              
O              -6.435              17.664              -6.637              
C              -8.8                16.034              -6.387              
C              -8.472              14.811              -7.247              
C              -8.539              13.576              -6.398              
C              -9.431              14.709              -8.405              
H              -9.039              18.158              -4.764              
H              -7.716              15.525              -4.666              
H              -9.72               15.895              -6.015              
H              -8.805              16.83               -6.994              
H              -7.554              14.92               -7.62               
H              -9.46               13.472              -6.012              
H              -8.326              12.765              -6.951              
H              -7.878              13.638              -5.645              
H              -9.366              15.531              -8.976              
H              -9.209              13.905              -8.963              
H              -10.37              14.621              -8.064              
N              -5.42               16.319              -5.162              
C              -4.09               16.746              -5.579              
C              -3.066              15.648              -5.323              
O              -3.341              14.711              -4.593              
C              -3.671              18.016              -4.836              
O              -3.5                17.741              -3.467              
H              -5.597              15.625              -4.42               
H              -4.114              16.922              -6.569              
H              -2.813              18.339              -5.217              
H              -4.383              18.699              -4.948              
H              -4.194              18.228              -2.935              
N              -1.887              15.783              -5.922              
C              -0.846              14.765              -5.821              
C              -0.593              14.324              -4.376              
O              -0.419              15.164              -3.502              
C              0.451               15.289              -6.445              
O              0.255               15.566              -7.82               
H              -1.772              16.665              -6.462              
H              -1.151              13.952              -6.34               
H              0.715               16.124              -5.979              
H              1.154               14.595              -6.35               
H              -0.659              15.269              -8.093              
N              -0.576              13.003              -4.176              
C              -0.385              12.281              -2.897              
C              -1.676              11.924              -2.162              
O              -1.663              11.077              -1.283              
C              0.564               12.972              -1.911              
C              1.995               13.024              -2.412              
H              -0.724              12.454              -5.091              
H              0.081               11.405              -3.127              
H              0.243               13.904              -1.768              
H              0.545               12.467              -1.052              
O              2.435               12.16               -3.161              
N              2.726               14.053              -1.993              
H              2.327               14.733              -1.378              
H              3.676               14.147              -2.292              
N              -2.774              12.592              -2.487              
C              -4.017              12.277              -1.789              
C              -4.459              10.861              -2.13               
O              -4.124              10.328              -3.187              
C              -5.123              13.278              -2.101              
S              -6.041              12.922              -3.598              
H              -2.68               13.295              -3.216              
H              -3.845              12.322              -0.802              
H              -5.76               13.285              -1.33               
H              -4.703              14.183              -2.191              
H              -6.933              12.528              -3.365              
N              -5.207              10.26               -1.219              
C              -5.742              8.922               -1.426              
C              -7.255              9.038               -1.594              
O              -7.948              9.718               -0.807              
C              -5.375              8.003               -0.254              
C              -6.184              6.711               -0.292              
C              -3.887              7.712               -0.276              
H              -5.377              10.816              -0.356              
H              -5.366              8.559               -2.274              
H              -5.62               8.472               0.592               
H              -6.237              6.324               0.628               
H              -7.106              6.906               -0.626              
H              -5.739              6.058               -0.903              
H              -3.642              7.295               -1.152              
H              -3.379              8.566               -0.159              
H              -3.66               7.083               0.469               
N              -7.765              8.39                -2.632              
C              -9.173              8.531               -2.935              
C              -9.803              7.191               -3.278              
O              -9.12               6.238               -3.647              
C              -9.368              9.535               -4.077              
S              -8.619              9.053               -5.626              
H              -7.107              7.814               -3.167              
H              -9.642              8.896               -2.118              
H              -10.353             9.65                -4.215              
H              -8.973              10.407              -3.784              
H              -7.896              8.377               -5.462              
N              -11.119             7.13                -3.125              
C              -11.855             5.943               -3.514              
C              -12.711             6.268               -4.722              
O              -13.451             7.249               -4.71               
C              -12.751             5.467               -2.378              
C              -13.601             4.268               -2.77               
C              -14.116             3.545               -1.558              
H              -11.555             7.974               -2.718              
H              -11.196             5.24                -3.784              
H              -12.182             5.204               -1.604              
H              -13.364             6.208               -2.115              
H              -14.373             4.59                -3.309              
H              -13.041             3.645               -3.308              
O              -14.333             4.158               -0.526              
N              -14.285             2.233               -1.663              
H              -14.617             1.676               -0.88               
H              -14.075             1.782               -2.556              
N              -12.625             5.443               -5.761              
C              -13.411             5.68                -6.962              
C              -14.781             5.008               -6.818              
O              -14.88              3.782               -6.739              
C              -12.714             5.132               -8.223              
C              -11.259             5.619               -8.307              
C              -13.499             5.531               -9.474              
C              -11.114             7.136               -8.286              
H              -11.975             4.65                -5.642              
H              -13.583             6.663               -7.002              
H              -12.701             4.138               -8.16               
H              -10.753             5.237               -7.537              
H              -10.863             5.274               -9.156              
H              -13.07              5.123               -10.277             
H              -14.437             5.203               -9.393              
H              -13.497             6.524               -9.561              
H              -11.499             7.488               -7.436              
H              -10.147             7.372               -8.344              
H              -11.604             7.521               -9.065              
N              -15.833             5.812               -6.763              
C              -17.179             5.285               -6.535              
C              -17.921             4.965               -7.818              
O              -18.793             4.1                 -7.822              
C              -17.986             6.254               -5.678              
C              -17.568             6.241               -4.248              
H              -15.628             6.818               -6.892              
H              -17.094             4.43                -5.993              
H              -17.869             7.184               -6.036              
H              -18.956             6.005               -5.728              
N              -17.848             5.186               -3.41               
C              -16.849             7.128               -3.521              
C              -17.334             5.43                -2.219              
N              -16.722             6.599               -2.259              
H              -16.483             7.997               -3.837              
H              -17.398             4.834               -1.423              
H              -16.241             7.031               -1.493              
N              -17.556             5.652               -8.898              
C              -18.094             5.366               -10.219             
C              -17.095             5.735               -11.304             
O              -16.529             6.831               -11.31              
C              -19.388             6.132               -10.451             
C              -20.093             5.751               -11.729             
C              -21.56              6.169               -11.712             
N              -21.719             7.621               -11.641             
C              -21.96              8.395               -12.693             
N              -22.074             7.853               -13.9               
N              -22.091             9.707               -12.538             
H              -16.858             6.405               -8.714              
H              -18.291             4.38                -10.284             
H              -20.001             5.947               -9.689              
H              -19.173             7.103               -10.491             
H              -19.656             6.202               -12.505             
H              -20.06              4.761               -11.852             
H              -21.986             5.831               -12.547             
H              -21.989             5.751               -10.915             
H              -21.641             8.059               -10.739             
H              -22.003             6.87                -14.036             
H              -22.238             8.45                -14.697             
H              -22.026             10.105              -11.619             
H              -22.254             10.294              -13.327             
N              -16.883             4.821               -12.235             
C              -16.038             5.129               -13.378             
C              -16.539             4.436               -14.641             
O              -17.302             3.47                -14.578             
C              -14.573             4.784               -13.087             
C              -14.311             3.314               -12.936             
C              -14.514             2.682               -11.72              
C              -13.857             2.567               -14.007             
C              -14.273             1.335               -11.572             
C              -13.616             1.215               -13.867             
C              -13.819             0.598               -12.646             
H              -17.347             3.915               -12.087             
H              -16.113             6.12                -13.543             
H              -14.03              5.117               -13.843             
H              -14.322             5.23                -12.241             
H              -14.842             3.212               -10.938             
H              -13.703             3.011               -14.891             
H              -14.428             0.893               -10.678             
H              -13.288             0.677               -14.664             
H              -13.638             -0.381              -12.54              
N              -16.13              4.948               -15.791             
C              -16.439             4.278               -17.044             
C              -15.186             4.205               -17.91              
O              -14.353             5.11                -17.893             
C              -17.598             4.975               -17.814             
C              -17.202             6.382               -18.254             
C              -18.871             5.002               -16.974             
C              -18.105             6.944               -19.346             
H              -15.596             5.827               -15.722             
H              -16.679             3.335               -16.811             
H              -17.785             4.432               -18.628             
H              -17.241             6.987               -17.465             
H              -16.269             6.354               -18.6               
H              -19.616             5.391               -17.513             
H              -19.107             4.072               -16.7               
H              -18.72              5.561               -16.161             
H              -19.042             6.982               -19.006             
H              -17.794             7.86                -19.586             
H              -18.058             6.349               -20.145             
N              -15.035             3.11                -18.64              
C              -13.907             2.966               -19.542             
C              -14.368             3.348               -20.947             
O              -15.447             2.952               -21.396             
C              -13.36              1.525               -19.527             
C              -12.363             1.304               -20.654             
C              -12.725             1.215               -18.178             
H              -15.769             2.391               -18.514             
H              -13.197             3.609               -19.268             
H              -14.127             0.909               -19.69              
H              -12.058             0.351               -20.649             
H              -12.798             1.509               -21.531             
H              -11.574             1.905               -20.526             
H              -12.314             2.048               -17.808             
H              -13.429             0.88                -17.552             
H              -12.02              0.516               -18.298             
N              -13.557             4.149               -21.624             
C              -13.816             4.505               -23                 
C              -12.623             4.108               -23.858             
O              -11.48              4.289               -23.453             
C              -14.063             6.005               -23.121             
C              -14.826             6.359               -24.38              
H              -12.734             4.49                -21.084             
H              -14.595             3.958               -23.314             
H              -14.593             6.303               -22.334             
H              -13.183             6.469               -23.141             
O              -15.853             5.754               -24.669             
N              -14.322             7.329               -25.142             
H              -13.469             7.776               -24.862             
H              -14.785             7.605               -25.977             
N              -12.884             3.572               -25.043             
C              -11.809             3.106               -25.902             
C              -11.699             4.025               -27.11              
O              -12.693             4.31                -27.777             
C              -12.033             1.644               -26.334             
O              -12.189             0.819               -25.167             
C              -10.871             1.134               -27.186             
H              -13.886             3.518               -25.291             
H              -10.948             3.149               -25.393             
H              -12.893             1.589               -26.878             
H              -10.99              0.156               -27.367             
H              -10.847             1.631               -28.055             
H              -10.008             1.278               -26.699             
H              -12.202             1.388               -24.339             
N              -10.488             4.512               -27.366             
C              -10.252             5.42                -28.485             
C              -10.1               4.649               -29.795             
O              -9.938              3.432               -29.791             
C              -9.002              6.274               -28.239             
C              -8.916              7.003               -26.885             
C              -7.809              8.03                -26.912             
C              -10.259             7.645               -26.511             
H              -9.744              4.198               -26.717             
H              -11.043             6.037               -28.571             
H              -8.206              5.676               -28.301             
H              -8.961              6.97                -28.951             
H              -8.736              6.327               -26.172             
H              -7.988              8.704               -27.632             
H              -7.759              8.5                 -26.028             
H              -6.932              7.58                -27.094             
H              -10.957             6.933               -26.448             
H              -10.168             8.108               -25.631             
H              -10.514             8.306               -27.215             
N              -10.127             5.374               -30.91              
C              -9.965              4.766               -32.232             
C              -10.015             5.832               -33.332             
C              -11.265             6.647               -33.356             
C              -11.223             7.669               -34.499             
C              -12.487             8.513               -34.528             
N              -12.513             9.435               -35.694             
H              -10.271             6.393               -30.765             
H              -10.746             4.134               -32.393             
H              -9.229              6.442               -33.199             
H              -9.913              5.362               -34.214             
H              -12.057             6.055               -33.498             
H              -11.367             7.145               -32.497             
H              -10.442             8.266               -34.361             
H              -11.145             7.18                -35.358             
H              -13.284             7.903               -34.572             
H              -12.538             9.051               -33.681             
H              -12.683             8.911               -36.528             
H              -13.241             10.109              -35.569             
H              -11.633             9.903               -35.767             
H              -9.03575            4.20874             -32.3383            
H              -11.5243            19.2304             -6.65992            
