301
1.xyz
C              5.245               58.773              93.21               
O              4.401               58.129              92.58               
N              6.029               59.699              92.656              
C              5.991               59.994              91.224              
C              6.389               58.76               90.403              
O              5.785               58.465              89.368              
C              6.909               61.185              90.911              
C              7.012               61.552              89.442              
C              6.099               62.449              88.844              
C              8.019               61.03               88.658              
C              6.195               62.782              87.502              
C              8.128               61.366              87.321              
C              7.216               62.232              86.741              
O              7.356               62.542              85.411              
H              6.661               60.186              93.323              
H              5.049               60.24               90.975              
H              6.564               61.983              91.408              
H              7.828               60.964              91.24               
H              5.374               62.846              89.405              
H              8.684               60.399              89.06               
H              5.54                63.41               87.087              
H              8.872               60.981              86.765              
H              8.296               62.357              85.127              
N              7.395               58.031              90.877              
C              7.841               56.827              90.186              
C              6.763               55.751              90.103              
O              6.714               55.014              89.124              
C              9.103               56.265              90.831              
C              10.37               56.903              90.258              
C              11.442              56.958              91.322              
C              10.823              56.148              89.014              
H              7.819               58.383              91.752              
H              8.11                57.08               89.24               
H              9.076               56.469              91.788              
H              9.144               55.306              90.644              
H              10.154              57.827              89.949              
H              11.655              56.031              91.638              
H              12.272              57.376              90.947              
H              11.122              57.504              92.099              
H              10.1                56.179              88.323              
H              11.651              56.574              88.649              
H              11.015              55.196              89.253              
N              5.908               55.66               91.117              
C              4.797               54.718              91.076              
C              3.63                55.262              90.236              
O              3.202               54.63               89.265              
C              4.308               54.395              92.491              
C              3.101               53.451              92.586              
C              3.374               52.13               91.868              
C              2.745               53.211              94.045              
H              6.096               56.295              91.91               
H              5.113               53.861              90.652              
H              5.058               53.965              92.983              
H              4.05                55.249              92.929              
H              2.308               53.897              92.168              
H              4.163               51.682              92.287              
H              2.573               51.538              91.947              
H              3.564               52.31               90.904              
H              2.517               54.082              94.482              
H              1.958               52.595              94.101              
H              3.525               52.797              94.516              
N              3.145               56.437              90.624              
C              1.937               57.031              90.077              
C              2.084               57.374              88.587              
O              1.139               57.214              87.811              
C              1.611               58.32               90.846              
C              0.147               58.642              91.127              
C              -0.851              57.844              90.303              
N              -2.038              58.617              89.939              
C              -2.382              58.956              88.694              
N              -3.484              59.666              88.491              
N              -1.645              58.594              87.648              
H              3.72                56.906              91.372              
H              1.173               56.376              90.175              
H              2.093               58.279              91.736              
H              2.002               59.097              90.327              
H              -0.047              58.47               92.103              
H              -0.016              59.623              90.947              
H              -0.39               57.538              89.47               
H              -1.13               57.048              90.841              
H              -2.648              58.92               90.688              
H              -4.055              59.972              89.245              
H              -3.752              59.904              87.545              
H              -0.802              58.069              87.817              
H              -1.916              58.834              86.728              
N              3.257               57.868              88.198              
C              3.469               58.361              86.842              
C              4.312               57.382              86.038              
O              3.857               56.882              85.014              
C              4.108               59.778              86.842              
C              4.497               60.224              85.427              
C              3.146               60.785              87.456              
H              3.993               57.871              88.931              
H              2.572               58.44               86.393              
H              4.951               59.727              87.372              
H              5.189               59.603              85.066              
H              3.688               60.204              84.843              
H              4.863               61.152              85.464              
H              2.887               60.478              88.372              
H              3.594               61.677              87.514              
H              2.331               60.855              86.882              
N              5.536               57.098              86.5                
C              6.492               56.343              85.68               
C              6.069               54.889              85.494              
O              5.958               54.407              84.362              
C              7.942               56.391              86.227              
C              8.879               55.611              85.317              
C              8.435               57.822              86.327              
H              5.74                57.444              87.447              
H              6.528               56.777              84.768              
H              7.943               55.935              87.11               
H              9.787               56.029              85.335              
H              8.942               54.665              85.634              
H              8.525               55.625              84.382              
H              8.133               58.218              87.195              
H              9.435               57.833              86.284              
H              8.062               58.356              85.568              
N              5.849               54.194              86.607              
C              5.466               52.789              86.567              
C              4.111               52.635              85.891              
O              3.953               51.751              85.052              
C              5.451               52.175              87.976              
C              5.279               50.65               88.134              
C              3.83                50.198              88.021              
C              6.139               49.854              87.166              
H              5.972               54.731              87.487              
H              6.148               52.285              86.03               
H              6.321               52.418              88.424              
H              4.701               52.609              88.49               
H              5.645               50.38               89.035              
H              3.47                50.452              87.123              
H              3.78                49.205              88.131              
H              3.286               50.639              88.735              
H              7.105               50.068              87.321              
H              5.989               48.875              87.311              
H              5.893               50.092              86.225              
N              3.142               53.483              86.244              
C              1.8                 53.381              85.651              
C              1.869               53.506              84.135              
O              1.203               52.754              83.418              
C              0.828               54.437              86.209              
C              -0.584              54.307              85.643              
C              -1.514              55.444              86.035              
C              -2.288              55.112              87.289              
N              -1.604              55.591              88.519              
H              3.406               54.19               86.943              
H              1.413               52.484              85.887              
H              0.783               54.325              87.194              
H              1.18                55.335              85.974              
H              -0.526              54.268              84.635              
H              -0.983              53.436              85.964              
H              -0.969              56.26               86.2                
H              -2.157              55.602              85.293              
H              -3.2                55.536              87.235              
H              -2.407              54.114              87.348              
H              -1.545              54.843              89.18               
H              -0.683              55.905              88.287              
H              -2.124              56.347              88.916              
N              2.664               54.451              83.647              
C              2.766               54.671              82.196              
C              3.311               53.428              81.479              
O              2.769               52.995              80.463              
C              3.648               55.899              81.869              
O              3.063               57.078              82.431              
C              3.79                56.095              80.356              
H              3.186               54.999              84.344              
H              1.845               54.862              81.839              
H              4.566               55.763              82.294              
H              3.041               56.667              80.021              
H              4.664               56.541              80.157              
H              3.759               55.205              79.899              
H              3.3                 57.157              83.405              
N              4.388               52.861              82.012              
C              5.031               51.707              81.387              
C              4.172               50.451              81.528              
O              4.073               49.653              80.598              
C              6.428               51.466              81.993              
C              7.672               52.137              81.394              
C              7.473               53.607              81.066              
C              8.826               51.975              82.358              
H              4.725               53.298              82.889              
H              5.152               51.899              80.406              
H              6.383               51.744              82.969              
H              6.594               50.465              81.975              
H              7.932               51.639              80.552              
H              7.237               54.108              81.9                
H              8.317               53.982              80.681              
H              6.733               53.705              80.4                
H              9.008               51.001              82.508              
H              9.647               52.409              81.98               
H              8.6                 52.406              83.234              
N              3.557               50.281              82.693              
C              2.79                49.08               82.98               
C              1.594               48.914              82.04               
O              1.318               47.816              81.577              
C              2.326               49.089              84.435              
C              1.698               47.808              84.877              
C              0.365               47.479              84.827              
C              2.372               46.668              85.443              
N              0.174               46.203              85.324              
C              1.385               45.686              85.709              
C              3.709               46.382              85.748              
C              1.697               44.442              86.284              
C              4.021               45.139              86.315              
C              3.024               44.19               86.575              
H              3.671               51.065              83.365              
H              3.396               48.283              82.838              
H              3.112               49.253              85.022              
H              1.649               49.808              84.553              
H              -0.358              48.07               84.485              
H              -0.705              45.735              85.391              
H              4.432               47.04               85.569              
H              0.975               43.776              86.47               
H              4.969               44.938              86.533              
H              3.282               43.314              86.979              
N              0.905               50.017              81.755              
C              -0.275              49.997              80.875              
C              0.079               49.958              79.37               
O              -0.773              49.721              78.547              
C              -1.184              51.196              81.173              
C              -0.699              52.517              80.601              
C              -1.655              53.646              80.949              
C              -1.094              54.969              80.471              
N              -1.861              56.136              80.971              
H              1.264               50.884              82.2                
H              -0.827              49.174              81.091              
H              -2.088              51.001              80.793              
H              -1.256              51.289              82.167              
H              0.201               52.727              80.98               
H              -0.636              52.441              79.608              
H              -2.521              53.484              80.497              
H              -1.766              53.682              81.932              
H              -0.136              55.048              80.779              
H              -1.098              54.98               79.461              
H              -2.287              55.905              81.846              
H              -1.243              56.913              81.096              
H              -2.571              56.378              80.309              
N              1.342               50.187              79.026              
C              1.772               50.22               77.623              
C              1.496               48.876              76.907              
O              1.549               47.811              77.529              
C              3.268               50.552              77.573              
C              3.743               50.998              76.228              
N              3.748               52.319              75.85               
C              4.224               50.302              75.171              
C              4.213               52.421              74.618              
N              4.512               51.21               74.184              
H              1.992               50.339              79.822              
H              1.25                50.936              77.145              
H              3.461               51.283              78.237              
H              3.791               49.734              77.839              
H              3.447               53.085              76.421              
H              4.345               49.314              75.119              
H              4.319               53.267              74.102              
N              1.224               48.928              75.602              
C              0.911               47.716              74.819              
C              2.085               46.724              74.768              
O              1.884               45.532              74.561              
C              0.458               48.089              73.398              
C              1.596               48.512              72.475              
C              1.148               49.348              71.282              
H              1.25                49.878              75.187              
H              0.137               47.251              75.271              
H              0.004               47.297              72.99               
H              -0.192              48.848              73.459              
H              2.257               49.049              73.007              
H              2.052               47.687              72.13               
O              0.21                48.979              70.546              
N              1.823               50.489              71.077              
H              1.589               51.088              70.295              
H              2.567               50.735              71.721              
N              3.305               47.225              74.959              
C              4.508               46.397              75.011              
C              4.981               46.039              76.429              
O              6.072               45.522              76.586              
C              5.661               47.082              74.261              
C              5.378               47.366              72.8                
C              4.501               46.574              72.054              
C              6.025               48.419              72.158              
C              4.26                46.844              70.717              
C              5.784               48.697              70.819              
C              4.899               47.91               70.1                
H              3.327               48.266              75.069              
H              4.28                45.515              74.554              
H              5.841               47.946              74.707              
H              6.448               46.484              74.306              
H              4.042               45.805              72.491              
H              6.673               48.984              72.671              
H              3.622               46.263              70.198              
H              6.258               49.473              70.375              
H              4.717               48.107              69.136              
N              4.168               46.27               77.456              
C              4.618               46.027              78.829              
C              3.665               46.671              79.842              
H              3.232               46.62               77.212              
H              5.52                46.469              78.954              
H              4.1                 46.684              80.74               
H              3.46                47.604              79.554              
H              2.822               46.139              79.884              
H              4.71782             44.9613             79.048              
H              5.38669             58.5964             94.2479             
