401

C   13.485   27.961   76.759
C   14.745   28.776   76.447
O   15.254   28.741   75.337
C   13.009   27.231   75.496
C   13.947   26.116   75.108
H   13.747   27.281   77.463
H   12.111   26.849   75.678
H   12.966   27.89   74.755
O   14.41   25.379   75.98
N   14.246   25.987   73.808
H   13.843   26.634   73.156
H   14.853   25.267   73.503
N   15.231   29.502   77.443
C   16.415   30.331   77.329
C   17.373   29.875   78.413
O   17.528   30.551   79.426
C   16.045   31.797   77.535
C   14.955   32.352   76.609
C   14.447   33.679   77.153
C   15.45   32.504   75.178
H   14.676   29.424   78.336
H   16.837   30.173   76.446
H   15.719   31.904   78.47
H   16.862   32.345   77.39
H   14.204   31.7   76.567
H   15.203   34.332   77.202
H   13.737   34.039   76.548
H   14.066   33.542   78.068
H   15.735   31.612   74.826
H   14.714   32.867   74.606
H   16.228   33.133   75.158
N   17.994   28.694   78.223
C   18.767   28.093   79.308
C   20.062   28.847   79.648
O   20.618   28.648   80.726
C   19.036   26.664   78.799
C   18.935   26.746   77.317
C   17.897   27.797   77.05
H   18.192   27.991   80.144
H   19.952   26.359   79.085
H   18.356   26.026   79.176
H   19.819   27.006   76.915
H   18.656   25.86   76.931
H   18.092   28.304   76.209
H   16.978   27.402   76.99
N   20.512   29.714   78.742
C   21.676   30.572   78.987
C   21.331   31.989   79.462
O   22.225   32.827   79.597
C   22.489   30.698   77.699
C   21.741   31.432   76.621
O   20.511   31.582   76.746
O   22.378   31.866   75.655
H   19.972   29.731   77.852
H   22.215   30.136   79.733
H   23.322   31.195   77.912
H   22.701   29.781   77.382
N   20.052   32.282   79.671
C   19.664   33.64   80.023
C   20.303   34.08   81.346
O   20.898   35.164   81.448
C   18.148   33.785   80.114
C   17.755   35.198   80.46
C   17.731   36.184   79.475
C   17.468   35.572   81.786
C   17.402   37.491   79.786
C   17.134   36.887   82.107
C   17.105   37.835   81.097
O   16.795   39.153   81.368
H   19.394   31.5   79.566
H   19.99   34.264   79.301
H   17.759   33.557   79.237
H   17.819   33.186   80.826
H   17.956   35.942   78.53
H   17.504   34.883   82.503
H   17.376   38.191   79.067
H   16.921   37.138   83.044
H   17.449   39.511   82.031
N   20.168   33.242   82.36
C   20.684   33.583   83.688
C   22.183   33.247   83.806
O   22.847   33.635   84.765
C   19.831   32.932   84.781
C   18.458   33.581   84.929
C   18.327   34.89   85.406
C   17.293   32.9   84.582
C   17.082   35.487   85.542
C   16.042   33.494   84.712
C   15.94   34.788   85.195
O   14.703   35.396   85.348
H   19.685   32.356   82.146
H   20.58   34.574   83.825
H   19.696   31.978   84.549
H   20.306   33.022   85.647
H   19.15   35.405   85.655
H   17.357   31.966   84.232
H   17.011   36.426   85.891
H   15.218   32.987   84.457
H   14.017   34.856   84.868
N   22.713   32.542   82.81
C   24.158   32.43   82.659
C   24.735   33.813   82.348
O   25.788   34.184   82.862
C   24.514   31.44   81.546
C   25.999   31.287   81.27
C   26.791   30.782   82.471
C   28.27   31.118   82.325
N   29.088   30.475   83.394
H   22.031   32.096   82.175
H   24.554   32.105   83.517
H   24.147   30.542   81.8
H   24.066   31.748   80.703
H   26.126   30.639   80.507
H   26.375   32.179   80.99
H   26.446   31.221   83.29
H   26.694   29.797   82.529
H   28.589   30.798   81.43
H   28.384   32.112   82.377
H   30.014   30.319   83.052
H   29.12   31.076   84.191
H   28.672   29.603   83.648
N   24.04   34.563   81.507
C   24.51   35.867   81.026
C   24.032   37.018   81.928
O   24.805   37.932   82.222
C   24.069   36.081   79.545
C   24.815   35.086   78.641
C   24.331   37.518   79.071
C   24.162   34.864   77.295
H   23.125   34.151   81.211
H   25.513   35.849   81.097
H   23.103   35.885   79.489
H   25.744   35.427   78.502
H   24.867   34.211   79.123
H   24.008   37.617   78.134
H   23.843   38.152   79.664
H   25.309   37.702   79.113
H   24.115   35.732   76.802
H   24.702   34.209   76.768
H   23.239   34.505   77.429
N   22.767   36.967   82.369
C   22.164   38.056   83.15
C   22.208   37.773   84.662
O   21.377   37.007   85.186
C   20.691   38.289   82.732
C   20.597   38.583   81.22
C   20.033   39.375   83.592
C   21.433   39.745   80.739
H   22.256   36.099   82.113
H   22.741   38.866   82.996
H   20.186   37.454   82.912
H   20.872   37.753   80.727
H   19.633   38.765   81.004
H   19.068   39.443   83.352
H   20.125   39.132   84.554
H   20.484   40.247   83.421
H   22.396   39.565   80.935
H   21.309   39.859   79.754
H   21.146   40.579   81.21
N   23.166   38.415   85.347
C   23.385   38.239   86.789
C   22.639   39.26   87.646
O   22.684   39.185   88.869
C   24.872   38.317   87.119
C   25.744   37.293   86.406
C   25.254   35.87   86.623
C   26.222   34.861   86.041
N   25.588   33.516   85.961
H   23.749   39.057   84.761
H   23.073   37.308   87.05
H   25.201   39.232   86.873
H   24.981   38.186   88.108
H   25.74   37.49   85.422
H   26.683   37.368   86.75
H   25.17   35.706   87.6
H   24.372   35.762   86.176
H   26.488   35.153   85.124
H   27.031   34.808   86.624
H   25.628   33.187   85.018
H   26.079   32.882   86.558
H   24.634   33.581   86.253
N   21.952   40.214   87.022
C   21.179   41.194   87.777
C   19.8   41.315   87.154
O   19.459   42.341   86.547
C   21.875   42.566   87.806
O   22.14   42.985   86.461
C   23.17   42.48   88.565
H   22.013   40.199   85.992
H   21.077   40.865   88.715
H   21.247   43.245   88.233
H   23.73   41.721   88.215
H   23.69   43.335   88.466
H   22.992   42.324   89.542
H   22.59   42.247   85.948
N   18.99   40.253   87.291
C   17.683   40.323   86.654
C   16.761   41.328   87.317
O   16.838   41.546   88.524
C   17.136   38.898   86.794
C   17.955   38.241   87.852
C   19.289   38.912   87.827
H   17.779   40.525   85.662
H   16.16   38.919   87.054
H   17.213   38.403   85.918
H   17.513   38.346   88.755
H   18.043   37.252   87.664
H   19.686   38.985   88.744
H   19.935   38.433   87.227
N   15.915   41.96   86.513
C   14.967   42.944   87.011
C   13.796   43.032   86.042
O   13.949   42.773   84.861
C   15.657   44.307   87.173
C   14.849   45.358   87.924
S   14.107   44.795   89.467
C   15.538   44.33   90.445
H   15.989   41.693   85.509
H   14.617   42.628   87.892
H   16.534   44.171   87.661
H   15.875   44.671   86.253
H   15.465   46.176   88.091
H   14.122   45.724   87.28
H   16.224   45.057   90.4
H   15.262   44.191   91.397
H   15.928   43.482   90.084
N   12.623   43.376   86.571
C   11.401   43.428   85.801
C   10.424   44.39   86.487
O   10.593   44.726   87.649
C   10.801   42.02   85.686
C   10.387   41.444   87.036
O   11.233   40.825   87.733
O   9.206   41.619   87.399
H   12.669   43.604   87.593
H   11.617   43.826   84.91
H   9.999   42.075   85.105
H   11.486   41.426   85.284
N   9.391   44.817   85.773
C   8.436   45.779   86.322
C   7.515   45.182   87.393
O   6.997   45.914   88.222
C   7.608   46.403   85.204
C   8.447   47.231   84.253
S   7.512   48.474   83.358
C   6.477   47.449   82.312
H   9.32   44.422   84.819
H   8.962   46.533   86.753
H   7.159   45.673   84.682
H   6.905   46.994   85.608
H   9.213   47.666   84.792
H   8.924   46.59   83.598
H   5.741   48.004   81.922
H   7.028   47.062   81.572
H   6.082   46.707   82.856
N   7.313   43.863   87.362
C   6.572   43.177   88.417
C   7.281   43.393   89.743
O   6.67   43.788   90.746
H   7.72   43.38   86.54
H   5.645   43.546   88.469
H   6.53   42.199   88.215
N   8.588   43.152   89.729
C   9.429   43.357   90.895
C   9.419   44.824   91.31
O   9.233   45.126   92.487
C   10.878   42.89   90.617
O   10.879   41.476   90.36
C   11.799   43.187   91.796
H   8.952   42.805   88.813
H   9.063   42.812   91.657
H   11.22   43.365   89.784
H   11.326   43.776   92.454
H   12.058   42.331   92.247
H   12.625   43.652   91.471
H   11.022   41.301   89.381
N   9.618   45.725   90.343
C   9.63   47.16   90.603
C   8.272   47.604   91.138
O   8.211   48.417   92.049
C   10.013   47.977   89.342
C   11.477   47.726   88.993
C   9.813   49.483   89.557
C   11.843   48.096   87.577
H   9.762   45.313   89.396
H   10.29   47.308   91.341
H   9.453   47.653   88.592
H   12.047   48.252   89.625
H   11.669   46.753   89.131
H   10.053   49.968   88.72
H   8.859   49.657   89.786
H   10.399   49.788   90.303
H   11.668   49.069   87.431
H   12.812   47.905   87.422
H   11.292   47.559   86.939
N   7.191   47.051   90.593
C   5.856   47.402   91.064
C   5.674   47.061   92.554
O   5.174   47.888   93.314
C   4.781   46.74   90.204
C   3.357   47.175   90.542
C   2.368   46.751   89.464
C   0.927   46.921   89.911
N   0.554   45.857   90.888
H   7.376   46.376   89.835
H   5.715   48.394   90.948
H   4.957   46.969   89.249
H   4.843   45.751   90.33
H   3.088   46.757   91.41
H   3.333   48.171   90.63
H   2.519   47.312   88.653
H   2.523   45.79   89.246
H   0.822   47.814   90.343
H   0.328   46.859   89.115
H   1.378   45.524   91.343
H   -0.074   46.237   91.566
H   0.11   45.105   90.403
N   6.093   45.858   92.961
C   6.007   45.439   94.366
C   6.914   46.282   95.253
O   6.53   46.659   96.361
C   6.42   43.981   94.541
C   5.402   42.954   94.082
C   5.851   41.579   94.557
C   4.856   40.484   94.249
N   5.141   39.89   92.911
H   6.478   45.255   92.209
H   5.054   45.549   94.677
H   7.27   43.833   94.025
H   6.607   43.825   95.517
H   4.523   43.161   94.484
H   5.356   42.954   93.095
H   6.722   41.357   94.111
H   5.993   41.614   95.55
H   4.924   39.771   94.943
H   3.934   40.866   94.246
H   4.353   40.029   92.313
H   5.944   40.335   92.517
H   5.315   38.912   93.015
N   8.125   46.549   94.771
C   9.075   47.386   95.503
C   8.511   48.783   95.775
O   8.694   49.311   96.864
C   10.424   47.466   94.777
C   11.233   46.183   94.881
C   12.553   46.254   94.128
N   13.408   45.118   94.478
C   14.72   45.024   94.233
N   15.389   45.998   93.632
N   15.37   43.94   94.607
H   8.333   46.121   93.849
H   9.28   46.946   96.388
H   10.249   47.646   93.818
H   10.952   48.199   95.184
H   11.435   45.994   95.844
H   10.701   45.423   94.502
H   12.358   46.231   93.157
H   13.008   47.097   94.38
H   12.97   44.332   94.947
H   14.915   46.839   93.367
H   16.365   45.896   93.444
H   14.893   43.201   95.088
H   16.351   43.847   94.414
N   7.812   49.366   94.809
C   7.165   50.661   95.028
C   5.933   50.551   95.928
O   5.795   51.309   96.894
C   6.789   51.31   93.694
C   8.013   51.733   92.869
C   7.635   51.928   91.408
C   8.656   52.99   93.461
H   7.765   48.846   93.919
H   7.829   51.279   95.475
H   6.289   50.652   93.163
H   6.266   52.118   93.882
H   8.711   51.022   92.941
H   6.935   52.639   91.336
H   8.444   52.203   90.887
H   7.277   51.07   91.038
H   8.946   52.802   94.399
H   9.449   53.246   92.909
H   7.989   53.734   93.458
N   5.044   49.612   95.613
C   3.787   49.483   96.341
C   4.01   49.133   97.809
O   3.32   49.654   98.682
C   2.869   48.461   95.664
C   2.21   49.025   94.409
C   1.455   47.999   93.595
O   1.558   46.777   93.858
O   0.74   48.435   92.674
H   5.317   48.997   94.825
H   3.269   50.35   96.279
H   3.416   47.699   95.395
H   2.16   48.231   96.293
H   1.566   49.72   94.689
H   2.919   49.402   93.834
N   4.992   48.277   98.071
H   5.512   47.944   97.233
H   12.7054   28.5491   77.163
H   5.20363   47.9842   99.0105
