207

C   4.757   44.543   79.134
O   5.598   44.166   79.944
N   3.949   43.709   78.482
C   3.714   42.33   78.946
C   4.971   41.473   79.168
O   5.034   40.743   80.163
C   2.688   41.585   78.06
C   3.072   41.429   76.615
C   2.801   42.295   75.595
C   3.776   40.329   76.027
N   3.316   41.816   74.412
C   3.916   40.611   74.649
C   4.323   39.146   76.534
C   4.56   39.747   73.776
C   4.964   38.295   75.673
C   5.076   38.594   74.303
H   3.504   44.103   77.632
H   3.228   42.392   79.844
H   2.556   40.668   78.433
H   1.825   42.087   78.086
H   2.3   43.155   75.689
H   3.26   42.274   73.527
H   4.248   38.927   77.506
H   4.637   39.97   72.8
H   5.359   37.447   76.019
H   5.547   37.94   73.709
N   5.978   41.575   78.273
C   7.168   40.761   78.498
C   7.952   41.164   79.738
O   8.733   40.358   80.26
C   8.001   40.992   77.227
C   7.051   41.547   76.232
C   6.12   42.372   77.045
H   6.922   39.773   78.537
H   8.752   41.636   77.414
H   8.399   40.125   76.908
H   7.535   42.106   75.554
H   6.565   40.809   75.759
H   6.503   43.27   77.256
H   5.232   42.485   76.598
N   7.753   42.408   80.174
C   8.518   43.02   81.25
C   7.704   43.082   82.566
O   8.161   43.649   83.561
C   8.987   44.429   80.8
C   9.78   44.421   79.509
C   11.131   44.067   79.506
C   9.179   44.754   78.293
C   11.847   44.034   78.318
C   9.897   44.734   77.106
C   11.228   44.368   77.119
H   6.983   42.915   79.664
H   9.306   42.422   81.437
H   8.182   44.979   80.662
H   9.564   44.79   81.511
H   11.583   43.836   80.36
H   8.21   45.011   78.282
H   12.819   43.767   78.33
H   9.44   44.989   76.24
H   11.755   44.34   76.268
N   6.523   42.466   82.58
C   5.636   42.544   83.74
C   5.923   41.524   84.853
O   5.279   41.576   85.906
C   4.169   42.447   83.297
C   3.643   43.763   82.755
C   2.204   43.69   82.32
H   6.294   41.94   81.718
H   5.739   43.475   84.148
H   4.098   41.761   82.581
H   3.616   42.187   84.082
H   3.729   44.46   83.471
H   4.206   44.032   81.969
O   1.742   42.664   81.852
N   1.484   44.789   82.471
H   0.504   44.823   82.187
H   1.922   45.615   82.881
N   6.891   40.634   84.618
C   7.283   39.595   85.566
C   8.712   39.152   85.271
O   9.219   39.414   84.188
C   6.362   38.378   85.454
C   6.304   37.751   84.067
C   5.501   38.581   83.069
H   7.351   40.748   83.68
H   7.268   39.991   86.485
H   6.677   37.676   86.099
H   5.43   38.655   85.708
H   7.236   37.655   83.718
H   5.88   36.848   84.139
O   4.339   38.904   83.308
N   6.132   38.934   81.942
H   5.656   39.471   81.233
H   7.1   38.649   81.819
N   9.356   38.457   86.221
C   10.675   37.881   85.965
C   10.73   36.994   84.718
O   9.766   36.278   84.408
C   10.913   37.018   87.198
C   10.152   37.69   88.275
C   8.91   38.205   87.603
H   11.38   38.614   85.907
H   10.578   36.082   87.045
H   11.893   36.975   87.417
H   9.918   37.043   89.007
H   10.682   38.446   88.67
H   8.177   37.526   87.616
H   8.587   39.052   88.027
N   11.853   37.031   84.007
C   12.046   36.133   82.86
C   11.965   34.674   83.323
O   12.75   34.238   84.17
C   13.378   36.416   82.151
C   13.718   35.328   81.129
C   13.315   37.788   81.482
H   12.553   37.719   84.317
H   11.301   36.292   82.211
H   14.103   36.399   82.839
H   13.933   34.48   81.61
H   12.934   35.184   80.528
H   14.506   35.618   80.589
H   12.724   37.733   80.679
H   12.945   38.452   82.131
H   14.236   38.06   81.207
N   10.983   33.936   82.807
C   10.873   32.515   83.116
C   11.658   31.781   82.045
O   11.148   31.499   80.942
C   9.418   32.056   83.155
C   9.281   30.569   83.396
O   10.268   29.827   83.284
O   8.17   30.118   83.694
H   10.33   34.444   82.19
H   11.338   32.363   83.978
H   8.961   32.543   83.891
H   9.001   32.279   82.281
N   12.906   31.478   82.378
C   13.85   30.945   81.421
C   13.478   29.535   81.02
O   13.846   29.079   79.928
C   15.246   30.971   82.014
H   13.14   31.657   83.38
H   13.844   31.528   80.596
H   15.378   31.819   82.528
H   15.366   30.19   82.628
H   15.924   30.921   81.28
N   12.763   28.836   81.9
C   12.379   27.458   81.633
C   11.301   27.415   80.549
O   11.495   26.777   79.505
C   11.919   26.733   82.92
C   11.384   25.344   82.589
C   13.073   26.642   83.92
H   12.513   29.347   82.765
H   13.182   26.967   81.286
H   11.163   27.253   83.304
H   11.327   24.801   83.426
H   10.475   25.426   82.182
H   12.0   24.896   81.942
H   13.046   25.75   84.369
H   13.937   26.75   83.432
H   12.974   27.367   84.599
N   10.179   28.104   80.775
C   9.099   28.106   79.784
C   9.493   28.757   78.461
O   9.084   28.276   77.411
C   7.802   28.717   80.329
C   6.875   27.65   80.895
C   5.566   28.19   81.453
C   5.082   27.311   82.601
N   5.203   25.83   82.379
H   10.143   28.611   81.667
H   8.826   27.144   79.602
H   8.035   29.346   81.053
H   7.339   29.175   79.586
H   6.663   26.982   80.165
H   7.36   27.154   81.631
H   5.716   29.105   81.797
H   4.882   28.181   80.739
H   5.603   27.555   83.44
H   4.106   27.53   82.79
H   5.083   25.637   81.408
H   6.106   25.53   82.677
H   4.498   25.364   82.908
N   10.283   29.833   78.52
C   10.756   30.537   77.32
C   11.909   29.802   76.649
O   12.34   30.166   75.552
C   11.193   31.974   77.672
C   10.044   32.927   78.02
C   10.517   34.119   78.833
C   9.334   33.382   76.751
H   10.535   30.13   79.487
H   9.99   30.597   76.666
H   11.788   31.923   78.46
H   11.664   32.346   76.888
H   9.351   32.419   78.544
H   11.199   34.633   78.311
H   9.74   34.715   79.039
H   10.926   33.801   79.689
H   8.964   32.586   76.272
H   8.587   34.003   76.991
H   9.984   33.857   76.157
N   12.414   28.769   77.314
H   11.984   28.596   78.243
H   13.1571   28.2083   76.9289
H   4.65998   45.5788   78.9211
