401

C   18.358   -3.116   -1.013
C   17.23   -3.933   -1.6
O   16.371   -3.377   -2.277
C   19.547   -3.138   -1.896
S   20.761   -1.906   -1.341
H   18.059   -2.153   -0.954
H   19.983   -4.019   -1.852
H   19.287   -2.9   -2.816
N   17.286   -5.261   -1.412
C   16.231   -6.117   -1.9
C   14.876   -5.722   -1.312
O   13.899   -5.611   -2.035
C   16.544   -7.606   -1.571
C   15.45   -8.568   -1.992
C   15.334   -8.944   -3.358
C   14.447   -8.968   -1.101
C   14.305   -9.776   -3.792
C   13.394   -9.759   -1.543
C   13.322   -10.19   -2.905
H   18.123   -5.59   -0.906
H   16.162   -5.973   -2.896
H   17.367   -7.847   -2.054
H   16.654   -7.674   -0.595
H   16.003   -8.604   -4.008
H   14.493   -8.683   -0.149
H   14.282   -10.072   -4.755
H   12.662   -10.039   -0.903
H   12.58   -10.772   -3.193
N   14.84   -5.517   0.012
C   13.574   -5.145   0.625
C   13.146   -3.786   0.101
O   11.956   -3.538   -0.105
C   13.756   -5.152   2.17
C   12.509   -4.519   2.933
C   13.894   -6.587   2.644
H   15.719   -5.638   0.506
H   12.883   -5.816   0.351
H   14.528   -4.568   2.398
H   12.856   -4.041   3.726
H   12.06   -3.899   2.308
H   11.911   -5.261   3.194
H   14.019   -6.598   3.637
H   13.067   -7.097   2.405
H   14.686   -7.008   2.202
N   14.086   -2.904   -0.093
C   13.774   -1.558   -0.615
C   13.211   -1.639   -2.025
O   12.264   -0.901   -2.338
C   15.053   -0.703   -0.644
C   14.817   0.732   -1.085
H   15.049   -3.203   0.139
H   13.08   -1.146   -0.015
H   15.455   -0.681   0.274
H   15.709   -1.116   -1.279
N   15.317   1.214   -2.254
C   14.179   1.763   -0.467
C   15.038   2.523   -2.356
N   14.299   2.874   -1.269
H   13.708   1.72   0.413
H   15.313   3.126   -3.077
H   13.924   3.771   -1.105
N   13.753   -2.539   -2.828
C   13.235   -2.78   -4.195
C   11.8   -3.295   -4.067
O   10.928   -2.902   -4.794
C   14.072   -3.871   -4.868
C   15.384   -3.324   -5.431
O   15.564   -2.102   -5.41
O   16.128   -4.167   -5.929
H   14.559   -3.059   -2.436
H   13.193   -1.898   -4.647
H   14.284   -4.561   -4.191
H   13.544   -4.251   -5.613
N   11.589   -4.206   -3.135
C   10.241   -4.741   -2.877
C   9.293   -3.675   -2.441
O   8.082   -3.689   -2.837
C   10.328   -5.856   -1.842
S   11.14   -7.372   -2.446
H   12.427   -4.51   -2.609
H   9.907   -5.147   -3.742
H   10.847   -5.522   -1.06
H   9.403   -6.097   -1.559
N   9.76   -2.775   -1.559
C   9.003   -1.672   -1.092
C   8.492   -0.751   -2.194
O   7.279   -0.427   -2.225
C   9.823   -0.889   -0.084
S   8.801   0.092   1.085
H   10.751   -2.982   -1.255
H   8.184   -2.02   -0.585
H   10.365   -1.523   0.454
H   10.411   -0.253   -0.571
N   9.38   -0.395   -3.09
C   9.007   0.402   -4.253
C   8.034   -0.426   -5.154
O   7.233   0.139   -5.855
C   10.267   0.691   -5.048
C   11.045   1.888   -4.603
C   10.797   2.552   -3.376
C   12.129   2.325   -5.333
C   11.534   3.696   -3.017
C   12.862   3.42   -4.969
C   12.62   4.066   -3.762
O   13.401   5.148   -3.45
H   10.351   -0.718   -2.911
H   8.51   1.21   -3.948
H   10.866   -0.115   -4.99
H   10.006   0.825   -6.011
H   10.097   2.207   -2.765
H   12.39   1.814   -6.168
H   11.252   4.226   -2.215
H   13.589   3.772   -5.575
H   13.417   5.269   -2.458
N   8.192   -1.738   -5.223
C   7.344   -2.631   -6.04
C   5.982   -2.727   -5.472
O   5.012   -3.129   -6.194
H   8.985   -2.109   -4.639
H   7.314   -2.266   -6.98
H   7.782   -3.539   -6.074
N   5.812   -2.411   -4.214
C   4.493   -2.296   -3.615
C   3.728   -1.053   -4.122
O   2.578   -0.946   -3.878
C   4.544   -2.222   -2.08
C   5.13   -3.459   -1.414
H   6.695   -2.248   -3.676
H   3.955   -3.099   -3.905
H   5.101   -1.43   -1.824
H   3.61   -2.092   -1.743
O   4.905   -4.563   -1.835
N   5.884   -3.246   -0.342
H   6.034   -2.313   -0.012
H   6.303   -4.017   0.138
N   4.411   -0.138   -4.81
C   3.878   1.151   -5.27
C   4.043   1.356   -6.791
O   4.737   2.219   -7.294
C   4.558   2.303   -4.535
C   4.979   2.119   -3.094
C   5.897   3.219   -2.657
C   3.757   2.111   -2.246
H   5.414   -0.428   -5.007
H   2.891   1.185   -5.056
H   5.387   2.549   -5.063
H   3.929   3.095   -4.568
H   5.444   1.232   -3.0
H   5.437   4.108   -2.74
H   6.168   3.084   -1.699
H   6.723   3.228   -3.228
H   3.146   1.359   -2.517
H   4.002   1.99   -1.277
H   3.256   2.979   -2.342
N   3.245   0.468   -7.509
C   3.41   0.58   -8.961
C   3.026   1.937   -9.598
O   3.588   2.173   -10.636
C   2.566   -0.555   -9.516
C   1.513   -0.764   -8.535
C   2.243   -0.682   -7.267
H   4.373   0.333   -9.231
H   2.19   -0.302   -10.421
H   3.132   -1.384   -9.642
H   0.81   -0.052   -8.6
H   1.081   -1.661   -8.653
H   1.669   -0.433   -6.491
H   2.764   -1.506   -7.051
N   2.131   2.581   -8.967
C   1.777   3.825   -9.613
C   2.411   5.047   -8.936
O   1.966   6.107   -9.12
C   0.245   3.962   -9.801
C   -0.378   2.761   -10.521
O   0.222   2.277   -11.442
O   -1.46   2.313   -10.15
H   1.747   2.227   -8.126
H   2.145   3.796   -10.557
H   -0.164   4.04   -8.902
H   0.078   4.776   -10.339
N   3.48   4.84   -8.164
H   3.677   3.833   -7.966
C   8.076   6.41   -0.841
C   9.008   6.763   0.302
O   10.057   6.093   0.492
C   8.234   7.401   -1.981
C   7.564   6.871   -3.289
C   9.685   7.682   -2.292
C   7.329   8.069   -4.22
H   8.318   5.483   -1.146
H   7.768   8.248   -1.741
H   8.172   6.248   -3.713
H   6.708   6.48   -3.053
H   9.75   8.369   -3.017
H   10.147   8.025   -1.473
H   10.136   6.842   -2.596
H   8.206   8.493   -4.424
H   6.902   7.744   -5.058
H   6.732   8.719   -3.76
N   8.612   7.805   1.05
C   9.49   8.213   2.232
C   9.683   7.027   3.204
O   10.809   6.799   3.644
C   8.861   9.413   2.923
S   9.826   10.048   4.257
H   7.763   8.267   0.803
H   10.378   8.468   1.859
H   8.737   10.129   2.236
H   7.966   9.129   3.27
N   8.622   6.329   3.502
C   8.726   5.208   4.473
C   9.624   4.111   3.914
O   10.336   3.472   4.669
C   7.309   4.7   4.839
C   6.495   5.653   5.694
C   7.077   5.895   7.06
O   7.817   5.052   7.581
O   6.74   6.919   7.66
H   7.745   6.59   3.043
H   9.104   5.555   5.332
H   6.824   4.56   3.993
H   7.422   3.861   5.341
H   6.451   6.523   5.226
H   5.593   5.265   5.815
N   9.616   3.888   2.594
C   10.504   2.856   2.018
C   11.978   3.351   2.145
O   12.845   2.56   2.397
C   10.288   2.638   0.462
S   8.647   1.874   0.163
H   8.976   4.463   2.046
H   10.418   2.029   2.557
H   10.305   3.51   0.04
H   10.975   2.026   0.156
N   12.181   4.63   1.88
C   13.555   5.142   1.836
C   14.094   5.246   3.296
O   15.257   4.882   3.499
C   13.557   6.503   1.234
C   13.475   6.473   -0.279
O   13.448   5.408   -0.881
O   13.45   7.548   -0.878
H   11.35   5.2   1.718
H   14.117   4.461   1.379
H   12.77   7.012   1.577
H   14.4   6.971   1.49
N   13.279   5.715   4.218
C   13.58   5.727   5.657
C   14.029   4.338   6.119
O   15.107   4.192   6.828
C   12.396   6.22   6.485
C   12.536   6.04   8.006
C   11.264   6.475   8.707
C   11.426   6.168   10.207
N   10.305   6.637   11.037
H   12.369   6.092   3.839
H   14.324   6.379   5.826
H   12.267   7.197   6.304
H   11.576   5.723   6.193
H   12.706   5.079   8.198
H   13.295   6.597   8.324
H   11.146   7.44   8.603
H   10.508   5.956   8.368
H   11.531   5.166   10.311
H   12.287   6.598   10.522
H   10.004   7.54   10.723
H   9.539   5.994   10.969
H   10.595   6.702   11.994
N   13.26   3.329   5.811
C   13.566   1.936   6.169
C   14.942   1.526   5.621
O   15.748   0.924   6.295
C   12.469   0.994   5.667
H   12.389   3.585   5.278
H   13.586   1.857   7.169
H   11.851   0.777   6.42
H   11.96   1.441   4.934
H   12.887   0.155   5.323
N   15.2   1.841   4.352
C   16.452   1.432   3.751
C   17.665   2.112   4.419
O   18.658   1.474   4.621
C   16.426   1.696   2.213
H   14.465   2.372   3.87
H   16.561   0.432   3.855
H   17.192   2.285   1.982
H   16.504   0.825   1.743
H   15.566   2.138   1.984
N   17.512   3.412   4.725
C   18.639   4.199   5.279
C   18.919   3.627   6.665
O   20.073   3.481   7.047
C   18.243   5.664   5.35
H   16.579   3.8   4.548
H   19.43   4.061   4.706
H   18.917   6.168   5.89
H   18.206   6.047   4.427
H   17.344   5.748   5.78
N   17.861   3.328   7.393
H   16.944   3.486   6.949
C   22.505   -17.12   -8.042
C   21.441   -17.258   -6.969
O   21.459   -16.564   -5.931
C   23.526   -18.276   -8.005
C   24.296   -18.449   -9.327
C   25.482   -19.388   -9.203
C   26.664   -18.673   -8.55
N   27.809   -19.578   -8.217
H   22.059   -17.172   -8.94
H   24.183   -18.087   -7.287
H   23.035   -19.118   -7.821
H   23.662   -18.81   -10.018
H   24.62   -17.547   -9.626
H   25.229   -20.158   -8.634
H   25.757   -19.687   -10.106
H   26.99   -17.95   -9.176
H   26.344   -18.226   -7.702
H   28.657   -19.052   -8.235
H   27.668   -19.962   -7.307
H   27.852   -20.313   -8.891
N   20.49   -18.137   -7.262
C   19.403   -18.462   -6.345
C   18.152   -17.686   -6.73
O   18.085   -17.054   -7.804
H   20.587   -18.577   -8.207
H   19.211   -19.445   -6.387
H   19.67   -18.221   -5.409
N   17.165   -17.739   -5.861
C   15.999   -16.907   -6.005
C   15.418   -16.445   -4.673
O   15.565   -17.096   -3.669
C   14.936   -17.607   -6.844
C   13.538   -17.002   -6.743
C   13.329   -15.762   -7.586
O   13.867   -14.695   -7.273
O   12.572   -15.843   -8.548
H   17.3   -18.417   -5.083
H   16.226   -16.088   -6.568
H   15.212   -17.553   -7.79
H   14.874   -18.543   -6.537
H   12.888   -17.684   -7.046
H   13.38   -16.752   -5.799
N   14.789   -15.272   -4.711
C   14.021   -14.742   -3.625
C   12.767   -14.065   -4.112
O   12.848   -13.243   -4.963
C   14.878   -13.75   -2.89
C   14.566   -13.751   -1.436
C   15.043   -15.044   -0.856
C   15.221   -12.579   -0.747
H   14.914   -14.765   -5.632
H   13.755   -15.502   -3.009
H   15.818   -14.012   -3.005
H   14.689   -12.856   -3.248
H   13.581   -13.668   -1.302
H   16.034   -15.14   -0.99
H   14.847   -15.077   0.129
H   14.581   -15.817   -1.302
H   14.889   -11.72   -1.145
H   15.002   -12.593   0.232
H   16.216   -12.629   -0.861
N   11.63   -14.352   -3.502
C   10.407   -13.588   -3.732
C   10.147   -12.583   -2.589
O   10.582   -12.782   -1.489
C   9.199   -14.497   -3.951
C   9.496   -15.658   -4.889
C   8.329   -16.054   -5.791
C   8.195   -17.562   -5.973
N   6.784   -18.006   -5.837
H   11.678   -15.163   -2.847
H   10.498   -13.07   -4.591
H   8.923   -14.868   -3.072
H   8.467   -13.954   -4.346
H   10.284   -15.412   -5.475
H   9.763   -16.464   -4.339
H   7.481   -15.707   -5.388
H   8.463   -15.637   -6.691
H   8.534   -17.808   -6.884
H   8.756   -18.022   -5.28
H   6.369   -17.558   -5.045
H   6.277   -17.761   -6.663
H   6.758   -18.998   -5.711
N   9.459   -11.494   -2.903
C   9.273   -10.384   -1.979
C   8.497   -10.739   -0.731
O   8.994   -10.356   0.35
C   8.657   -9.173   -2.684
S   9.79   -8.224   -3.743
O   7.441   -11.382   -0.926
H   9.061   -11.5   -3.872
H   10.197   -10.054   -1.695
H   7.898   -9.497   -3.253
H   8.297   -8.554   -1.981
H   22.9745   -16.1992   -7.935
H   4.04551   5.59563   -7.80527
H   18.6106   -3.44064   -0.0281633
H   21.917   -2.39949   -1.71403
H   7.04895   6.34813   -0.513449
H   9.3636   9.43665   5.32298
H   17.9595   2.95747   8.35263
