382
1.xyz
C              -27.943             8.591               0.356               
C              -27.185             7.439               1.004               
O              -27.811             6.413               1.339               
C              -28.927             9.164               1.348               
C              -29.792             10.295              0.793               
C              -30.855             10.651              1.845               
C              -28.886             11.462              0.439               
H              -27.282             9.267               0.041               
H              -29.54              8.441               1.636               
H              -28.422             9.53                2.116               
H              -30.242             9.99                -0.033              
H              -30.4               10.944              2.683               
H              -31.427             11.389              1.494               
H              -31.416             9.846               2.028               
H              -28.219             11.173              -0.249              
H              -29.435             12.215              0.073               
H              -28.403             11.773              1.259               
N              -25.874             7.638               1.253               
C              -25.03              6.631               1.886               
C              -25.634             6.11                3.169               
O              -25.676             4.925               3.387               
C              -23.634             7.209               2.132               
H              -25.526             8.574               0.951               
H              -24.914             5.858               1.241               
H              -23.361             7.759               1.345               
H              -23.653             7.78                2.95                
H              -22.985             6.461               2.26                
N              -26.189             6.999               3.967               
C              -26.996             6.674               5.131               
C              -28.483             6.918               4.805               
O              -28.834             8.026               4.489               
C              -26.627             7.577               6.325               
C              -25.179             7.398               6.711               
C              -27.425             7.219               7.536               
C              -24.763             8.19                7.889               
H              -25.994             8.003               3.683               
H              -26.903             5.692               5.281               
H              -26.766             8.524               6.041               
H              -25.018             6.421               6.89                
H              -24.61              7.657               5.921               
H              -27.184             7.821               8.302               
H              -28.406             7.317               7.348               
H              -27.243             6.269               7.804               
H              -25.308             7.932               8.692               
H              -23.793             8.027               8.093               
H              -24.894             9.171               7.713               
N              -29.349             5.933               4.784               
C              -29.33              4.598               5.314               
C              -29.204             3.487               4.278               
O              -29.271             2.302               4.651               
C              -30.743             4.484               5.935               
C              -31.587             5.156               4.891               
C              -30.75              6.336               4.416               
H              -28.591             4.497               6.024               
H              -30.997             3.535               6.044               
H              -30.783             4.968               6.795               
H              -31.775             4.532               4.133               
H              -32.449             5.473               5.285               
H              -30.821             6.461               3.433               
H              -30.999             7.174               4.89                
N              -29.046             3.847               2.985               
C              -28.951             2.823               1.924               
C              -27.749             1.878               1.992               
O              -27.897             0.705               1.7                 
C              -28.991             3.422               0.536               
O              -30.167             4.192               0.429               
H              -29                 4.856               2.815               
H              -29.801             2.25                1.978               
H              -28.207             4.007               0.411               
H              -29.017             2.696               -0.131              
H              -30.147             4.722               -0.419              
N              -26.591             2.388               2.343               
C              -25.411             1.59                2.446               
C              -24.746             1.508               3.837               
O              -23.816             0.79                3.988               
C              -24.406             2.089               1.443               
C              -24.828             1.972               0.024               
C              -24.695             0.807               -0.639              
C              -25.348             3.041               -0.665              
C              -25.062             0.685               -1.959              
C              -25.738             2.922               -1.977              
C              -25.592             1.739               -2.616              
O              -25.929             1.588               -3.908              
H              -26.613             3.419               2.537               
H              -25.639             0.622               2.169               
H              -24.217             3.058               1.64                
H              -23.553             1.568               1.564               
H              -24.317             -0.008              -0.168              
H              -25.446             3.927               -0.201              
H              -24.931             -0.202              -2.43               
H              -26.13              3.718               -2.455              
H              -25.146             1.238               -4.429              
N              -25.198             2.264               4.812               
C              -24.524             2.316               6.089               
C              -24.684             1.069               6.916               
O              -23.934             0.829               7.798               
C              -24.888             3.531               6.882               
O              -26.242             3.523               7.114               
H              -26.057             2.805               4.591               
H              -23.526             2.45                5.912               
H              -24.397             3.513               7.748               
H              -24.639             4.344               6.363               
H              -26.735             3.135               6.327               
N              -25.762             0.349               6.683               
C              -25.996             -0.872              7.408               
C              -26.334             -2.126              6.58                
O              -27.031             -2.967              7.052               
C              -27.011             -0.647              8.508               
O              -28.235             -0.495              7.961               
H              -26.399             0.727               5.96                
H              -25.146             -1.094              7.949               
H              -26.991             -1.438              9.116               
H              -26.745             0.173               9.012               
H              -28.173             -0.146              7.014               
N              -25.845             -2.187              5.352               
C              -26.283             -3.139              4.392               
C              -25.483             -4.42               4.475               
O              -24.29              -4.439              4.377               
C              -26.222             -2.514              2.998               
C              -26.719             -3.295              1.818               
C              -26.01              -4.347              1.297               
C              -27.874             -2.921              1.179               
C              -26.463             -5.016              0.183               
C              -28.34              -3.565              0.081               
C              -27.677             -4.62               -0.415              
O              -28.159             -5.248              -1.489              
H              -25.102             -1.463              5.159               
H              -27.254             -3.369              4.573               
H              -26.74              -1.633              3.033               
H              -25.248             -2.259              2.818               
H              -25.151             -4.636              1.728               
H              -28.397             -2.131              1.548               
H              -25.95              -5.776              -0.209              
H              -29.195             -3.243              -0.365              
H              -27.599             -6.056              -1.701              
N              -26.185             -5.497              4.657               
C              -25.511             -6.764              4.607               
C              -24.527             -7.049              5.747               
O              -24.712             -6.573              6.88                
H              -27.187             -5.374              4.827               
H              -26.207             -7.524              4.585               
H              -25.002             -6.849              3.715               
N              -23.532             -7.893              5.447               
C              -22.542             -8.294              6.407               
C              -21.257             -7.453              6.39                
O              -20.433             -7.579              7.312               
C              -22.13              -9.753              6.183               
S              -23.428             -10.959             6.525               
H              -23.55              -8.226              4.454               
H              -22.943             -8.214              7.344               
H              -21.851             -9.851              5.229               
H              -21.352             -9.948              6.78                
N              -21.078             -6.585              5.385               
C              -19.845             -5.811              5.369               
C              -19.919             -4.296              5.308               
O              -18.921             -3.663              5.621               
C              -18.883             -6.328              4.32                
C              -18.255             -7.621              4.744               
C              -18.878             -8.812              4.478               
C              -17.018             -7.642              5.442               
C              -18.319             -10.035             4.866               
C              -16.479             -8.839              5.869               
C              -17.111             -10.041             5.548               
O              -16.56              -11.257             5.981               
H              -21.819             -6.528              4.701               
H              -19.307             -6.064              6.226               
H              -19.383             -6.481              3.48                
H              -18.166             -5.658              4.192               
H              -19.76              -8.825              3.993               
H              -16.552             -6.786              5.614               
H              -18.786             -10.889             4.652               
H              -15.636             -8.854              6.409               
H              -17.152             -11.996             5.677               
N              -21.048             -3.746              4.93                
C              -21.134             -2.303              4.754               
C              -21.187             -1.612              6.117               
O              -21.938             -2.022              6.935               
H              -21.836             -4.391              4.774               
H              -20.308             -1.99               4.281               
N              -20.414             -0.548              6.299               
C              -20.214             0.189               7.552               
C              -19.599             -0.483              8.781               
O              -18.716             -1.241              8.667               
H              -19.912             -0.247              5.399               
H              -19.651             1.05                7.335               
H              -21.138             0.603               7.835               
N              -20.167             -0.291              9.957               
C              -19.816             -1.149              11.127              
C              -19.966             -2.612              10.64               
O              -20.841             -2.863              9.807               
C              -20.824             -0.909              12.318              
C              -20.828             -2.06               13.297              
C              -20.192             -2.127              14.493              
C              -21.361             -3.376              13.05               
N              -20.335             -3.361              15.021              
C              -21.067             -4.147              14.16               
C              -22.094             -3.953              12.012              
C              -21.463             -5.493              14.256              
C              -22.484             -5.285              12.129              
C              -22.172             -6.019              13.232              
H              -20.853             0.473               10.013              
H              -18.867             -1                  11.329              
H              -20.539             -0.104              12.799              
H              -21.725             -0.829              11.941              
H              -19.691             -1.369              14.918              
H              -19.971             -3.675              15.905              
H              -22.339             -3.431              11.2                
H              -21.211             -6.024              15.075              
H              -23.003             -5.688              11.372              
H              -22.479             -6.981              13.287              
N              -19.111             -3.535              11.02               
C              -19.294             -4.921              10.582              
C              -18.078             -5.493              9.895               
O              -16.955             -5.088              10.094              
H              -18.34              -3.223              11.621              
H              -19.528             -5.492              11.39               
H              -20.092             -4.964              9.953               
N              -18.313             -6.457              9.048               
C              -17.274             -7.134              8.357               
C              -16.927             -8.447              8.977               
O              -15.917             -8.578              9.602               
H              -19.335             -6.684              8.926               
H              -17.547             -7.284              7.383               
H              -16.439             -6.545              8.327               
N              -17.773             -9.423              8.703               
C              -17.592             -10.815             9.053               
C              -18.525             -11.634             8.18                
O              -19.454             -11.134             7.661               
C              -17.898             -11.017             10.524              
C              -16.998             -11.956             11.287              
C              -15.932             -11.209             12.07               
C              -14.866             -12.129             12.618              
N              -13.875             -12.598             11.599              
H              -18.641             -9.084              8.178               
H              -16.652             -11.085             8.861               
H              -17.866             -10.112             10.978              
H              -18.85              -11.359             10.602              
H              -17.549             -12.495             11.93               
H              -16.546             -12.58              10.644              
H              -15.499             -10.541             11.464              
H              -16.369             -10.733             12.834              
H              -14.365             -11.651             13.359              
H              -15.31              -12.941             13.033              
H              -14.302             -13.292             11.023              
H              -13.59              -11.823             11.039              
H              -13.084             -12.987             12.067              
N              -18.236             -12.914             8.039               
C              -19.08              -13.845             7.292               
C              -19.024             -13.695             5.779               
O              -18.13              -13.021             5.251               
H              -17.347             -13.213             8.509               
H              -18.818             -14.803             7.542               
H              -20.05              -13.735             7.602               
N              -19.935             -14.382             5.094               
C              -20.04              -14.427             3.635               
C              -20.909             -13.269             3.095               
O              -22.061             -13.134             3.48                
C              -20.679             -15.74              3.153               
O              -19.907             -16.884             3.571               
C              -20.776             -15.746             1.625               
H              -20.608             -14.918             5.718               
H              -19.119             -14.33              3.242               
H              -21.615             -15.826             3.566               
H              -21.233             -14.911             1.315               
H              -19.857             -15.787             1.231               
H              -21.302             -16.543             1.326               
H              -20.144             -17.134             4.514               
N              -20.389             -12.478             2.177               
C              -21.145             -11.338             1.671               
C              -22.442             -11.794             1.028               
O              -22.469             -12.804             0.406               
C              -20.233             -10.767             0.627               
C              -18.889             -11.121             1.086               
C              -19.003             -12.467             1.693               
H              -21.323             -10.672             2.405               
H              -20.427             -11.166             -0.28               
H              -20.345             -9.767              0.556               
H              -18.233             -11.127             0.313               
H              -18.549             -10.446             1.763               
H              -18.863             -13.195             1.022               
H              -18.366             -12.591             2.456               
N              -23.506             -11.064             1.291               
C              -24.845             -11.44              0.858               
C              -25.102             -11.387             -0.621              
O              -25.836             -12.16              -1.139              
C              -25.874             -10.64              1.594               
C              -25.796             -10.755             3.079               
C              -25.589             -12.161             3.518               
C              -26.811             -12.988             3.281               
N              -26.62              -14.385             3.704               
H              -23.312             -10.191             1.837               
H              -25.031             -12.399             1.192               
H              -25.765             -9.672              1.343               
H              -26.786             -10.945             1.298               
H              -25.033             -10.187             3.416               
H              -26.65              -10.403             3.485               
H              -24.828             -12.559             3.005               
H              -25.376             -12.175             4.495               
H              -27.585             -12.591             3.791               
H              -27.041             -12.969             2.299               
H              -26.925             -15.005             2.978               
H              -25.65              -14.553             3.893               
H              -27.152             -14.564             4.534               
N              -24.524             -10.395             -1.26               
C              -24.719             -10.152             -2.647              
C              -23.571             -9.304              -3.185              
O              -22.633             -9.076              -2.513              
C              -26.106             -9.547              -2.891              
C              -26.191             -8.09               -2.446              
O              -25.257             -7.603              -1.813              
O              -27.191             -7.463              -2.74               
H              -23.904             -9.799              -0.648              
H              -24.674             -11.032             -3.131              
H              -26.295             -9.592              -3.863              
H              -26.767             -10.074             -2.376              
N              -23.661             -8.901              -4.431              
C              -22.614             -8.131              -5.055              
C              -22.365             -6.782              -4.368              
O              -21.245             -6.395              -4.169              
C              -22.91              -7.933              -6.496              
H              -24.539             -9.181              -4.921              
H              -21.746             -8.661              -5.025              
H              -23.122             -8.812              -6.937              
H              -23.7               -7.321              -6.613              
H              -22.12              -7.525              -6.966              
N              -23.428             -6.088              -3.982              
C              -23.244             -4.779              -3.276              
C              -22.418             -4.973              -1.967              
O              -21.502             -4.176              -1.654              
C              -24.584             -4.151              -2.935              
O              -25.156             -3.662              -4.165              
C              -24.372             -2.975              -2.016              
H              -24.34              -6.489              -4.189              
H              -22.731             -4.171              -3.878              
H              -25.206             -4.86               -2.564              
H              -23.477             -3.044              -1.564              
H              -24.405             -2.117              -2.538              
H              -25.088             -2.952              -1.311              
H              -26.15              -3.805              -4.164              
N              -22.751             -6.027              -1.235              
C              -22.055             -6.364              0.006               
C              -20.616             -6.699              -0.296              
O              -19.715             -6.35               0.464               
C              -22.777             -7.524              0.688               
C              -22.544             -7.578              2.153               
O              -21.952             -6.615              2.703               
O              -22.905             -8.633              2.77                
H              -23.542             -6.589              -1.614              
H              -22.06              -5.54               0.578               
H              -23.754             -7.416              0.509               
H              -22.452             -8.369              0.267               
N              -20.362             -7.365              -1.449              
C              -18.97              -7.72               -1.819              
C              -18.213             -6.472              -2.065              
O              -17.01              -6.384              -1.795              
C              -18.884             -8.685              -3.018              
C              -19.355             -10.103             -2.669              
C              -19.053             -11.173             -3.765              
N              -19.983             -11.049             -4.898              
C              -21.155             -11.654             -4.99               
N              -21.563             -12.465             -4.036              
N              -21.922             -11.455             -6.059              
H              -21.181             -7.59               -2.015              
H              -18.571             -8.222              -1.052              
H              -19.464             -8.338              -3.737              
H              -17.942             -8.738              -3.306              
H              -18.905             -10.409             -1.825              
H              -20.348             -10.101             -2.525              
H              -18.127             -11.023             -4.074              
H              -19.155             -12.061             -3.343              
H              -19.697             -10.452             -5.665              
H              -21.013             -12.626             -3.218              
H              -22.452             -12.937             -4.126              
H              -21.614             -10.831             -6.78               
H              -22.798             -11.923             -6.142              
N              -18.93              -5.419              -2.492              
H              -19.916             -5.587              -2.663              
S              -23.66              -10.685             8.528               
H              -18.4616            -4.51557            -2.62314            
H              -28.4714            8.21177             -0.480347           
H              -21.99              -2.04747            4.17817             
H              -22.8402            -11.6062            9.08027             
