219
2.xyz
C              -13.808             36.257              42.371              
O              -14.052             37.408              42.707              
N              -12.589             35.758              42.379              
C              -11.465             36.564              42.81               
C              -11.122             37.73               41.852              
O              -11.029             38.91               42.228              
C              -10.244             35.634              43.068              
C              -8.948              36.349              43.539              
C              -7.787              36.432              42.53               
O              -7.4                37.537              42.08               
N              -7.251              35.257              42.147              
H              -12.508             34.777              42.062              
H              -11.695             36.98               43.71               
H              -10.496             34.968              43.772              
H              -10.03              35.148              42.218              
H              -9.195              37.293              43.813              
H              -8.613              35.871              44.367              
H              -6.499              35.24               41.479              
H              -7.625              34.404              42.548              
N              -10.892             37.402              40.586              
C              -10.498             38.401              39.613              
C              -11.5               39.502              39.368              
O              -11.113             40.648              39.209              
C              -10.065             37.731              38.3                
C              -8.83               36.86               38.482              
S              -7.303              37.833              38.75               
C              -7.187              38.712              37.186              
H              -11.016             36.397              40.365              
H              -9.628              38.835              39.945              
H              -10.813             37.159              37.965              
H              -9.859              38.441              37.626              
H              -8.986              36.226              39.271              
H              -8.725              36.259              37.66               
H              -7.996              38.515              36.633              
H              -7.133              39.695              37.36               
H              -6.367              38.414              36.697              
N              -12.79              39.187              39.31               
C              -13.755             40.247              39.036              
C              -13.721             41.313              40.121              
O              -13.989             42.502              39.9                
C              -15.189             39.694              38.832              
C              -15.278             38.673              37.698              
S              -15.186             39.508              36.098              
C              -16.672             40.565              36.041              
H              -13.026             38.21               39.463              
H              -13.503             40.682              38.163              
H              -15.487             39.256              39.681              
H              -15.8               40.459              38.623              
H              -14.522             38.007              37.801              
H              -16.147             38.162              37.788              
H              -16.524             41.287              35.372              
H              -17.452             40.005              35.777              
H              -16.819             40.957              36.944              
N              -13.385             40.87               41.329              
C              -13.289             41.807              42.45               
C              -11.99              42.621              42.37               
O              -12.009             43.844              42.414              
C              -13.338             41.031              43.75               
C              -13.645             41.88               44.984              
C              -13.744             41.065              46.276              
C              -14.022             41.905              47.526              
N              -13.007             41.752              48.583              
H              -13.208             39.863              41.403              
H              -14.067             42.443              42.412              
H              -14.047             40.329              43.678              
H              -12.45              40.591              43.894              
H              -12.918             42.568              45.094              
H              -14.518             42.36               44.84               
H              -14.485             40.395              46.176              
H              -12.879             40.575              46.413              
H              -14.077             42.877              47.248              
H              -14.93              41.642              47.889              
H              -13.114             40.861              49.029              
H              -12.09              41.812              48.184              
H              -13.117             42.477              49.266              
N              -10.862             41.917              42.241              
C              -9.528              42.485              42.134              
C              -9.46               43.596              41.108              
O              -8.752              44.583              41.278              
C              -8.571              41.431              41.561              
O              -8.092              40.53               42.533              
H              -11.032             40.868              42.223              
H              -9.282              42.876              43.035              
H              -9.056              40.917              40.848              
H              -7.791              41.906              41.142              
H              -7.989              39.621              42.128              
N              -10.133             43.401              39.986              
C              -10.081             44.396              38.917              
C              -11.157             45.476              39.042              
O              -11.387             46.334              38.186              
C              -10.032             43.729              37.534              
C              -8.804              42.825              37.378              
C              -7.515              43.594              37.059              
N              -6.396              42.683              36.885              
C              -6.036              42.271              35.683              
N              -6.678              42.678              34.6                
N              -5.028              41.429              35.552              
H              -10.673             42.528              39.932              
H              -9.171              44.847              38.938              
H              -10.837             43.172              37.428              
H              -9.98               44.435              36.849              
H              -8.657              42.318              38.23               
H              -8.965              42.175              36.633              
H              -7.667              44.103              36.222              
H              -7.335              44.207              37.818              
H              -5.901              42.37               37.678              
H              -7.438              43.323              34.671              
H              -6.401              42.338              33.696              
H              -4.524              41.118              36.362              
H              -4.76               41.097              34.646              
N              -11.834             45.442              40.159              
C              -12.871             46.423              40.415              
C              -14.086             46.332              39.493              
O              -14.693             47.352              39.158              
C              -12.251             47.839              40.392              
C              -11.243             47.998              41.529              
H              -11.581             44.689              40.819              
H              -13.213             46.261              41.365              
H              -11.783             47.958              39.535              
H              -12.974             48.495              40.515              
O              -11.449             47.514              42.649              
N              -10.125             48.652              41.262              
H              -9.981              49.022              40.337              
H              -9.431              48.781              41.964              
N              -14.444             45.126              39.065              
C              -15.562             44.97               38.151              
C              -16.916             44.767              38.854              
O              -17.97              44.738              38.22               
C              -15.273             43.894              37.056              
C              -13.928             44.114              36.339              
C              -13.583             42.999              35.352              
C              -13.948             45.439              35.592              
H              -13.878             44.343              39.427              
H              -15.634             45.807              37.577              
H              -15.237             43.024              37.502              
H              -15.984             43.956              36.388              
H              -13.2               44.178              37.034              
H              -14.294             42.945              34.652              
H              -12.704             43.198              34.921              
H              -13.527             42.13               35.841              
H              -14.101             46.186              36.24               
H              -13.071             45.576              35.129              
H              -14.684             45.43               34.914              
N              -16.912             44.639              40.177              
C              -18.151             44.435              40.913              
C              -18.416             45.54               41.909              
O              -19.133             45.355              42.897              
C              -18.135             43.094              41.662              
O              -17.208             43.12               42.738              
C              -17.816             41.973              40.685              
H              -15.98              44.696              40.621              
H              -18.916             44.412              40.247              
H              -19.072             42.922              42.048              
H              -17.667             42.352              39.769              
H              -16.988             41.491              40.979              
H              -18.579             41.323              40.651              
H              -16.659             42.275              42.755              
N              -17.813             46.687              41.639              
C              -17.885             47.846              42.51               
C              -19.23              48.559              42.537              
O              -19.778             48.874              43.6                
C              -16.619             48.712              42.442              
C              -16.538             49.9                43.385              
C              -16.198             51.187              42.644              
C              -15.612             52.288              43.528              
N              -15.252             53.492              42.782              
H              -17.275             46.686              40.736              
H              -17.659             47.55               43.467              
H              -15.825             48.112              42.623              
H              -16.532             49.055              41.494              
H              -17.421             50.016              43.843              
H              -15.83              49.727              44.071              
H              -15.531             50.976              41.921              
H              -17.034             51.543              42.213              
H              -16.293             52.516              44.24               
H              -14.795             51.916              43.994              
H              -14.296             53.437              42.479              
H              -15.843             53.588              41.976              
H              -15.362             54.304              43.363              
N              -19.805             48.808              41.373              
C              -21.101             49.476              41.373              
C              -22.256             48.559              41.012              
O              -23.394             48.854              41.311              
C              -21.129             50.763              40.542              
C              -20.121             51.743              41.077              
O              -20.292             52.403              42.091              
O              -19.027             51.783              40.355              
H              -19.302             48.515              40.541              
H              -21.266             49.804              42.322              
H              -20.896             50.53               39.615              
H              -22.03              51.15               40.613              
N              -21.955             47.445              40.366              
C              -22.954             46.461              39.997              
C              -22.219             45.182              39.682              
O              -20.987             45.137              39.768              
C              -23.79              46.9                38.803              
C              -22.944             47.44               37.667              
C              -23.66              47.233              36.349              
N              -22.791             46.844              35.233              
C              -23.203             46.202              34.116              
N              -24.485             45.833              33.912              
N              -22.281             45.933              33.179              
H              -20.937             47.336              40.145              
H              -23.56              46.306              40.77               
H              -24.294             46.116              38.468              
H              -24.406             47.618              39.098              
H              -22.797             48.412              37.794              
H              -22.082             46.952              37.634              
H              -24.358             46.518              36.48               
H              -24.13              48.093              36.11               
H              -21.811             47.069              35.297              
H              -25.156             46.068              34.618              
H              -24.739             45.351              33.093              
H              -21.337             46.215              33.298              
H              -22.557             45.44               32.349              
N              -22.951             44.138              39.345              
H              -23.957             44.257              39.357              
H              -22.4667            43.2922             39.098              
H              -14.5653            35.6023             42.0199             
