180

C   5.375   12.558   -3.368
O   4.141   12.53   -3.385
N   6.078   13.673   -3.17
C   5.454   15.01   -3.075
C   4.657   15.414   -4.315
O   3.541   15.94   -4.191
C   6.499   16.086   -2.694
C   7.162   15.748   -1.388
C   8.395   15.161   -1.204
C   6.591   15.884   -0.084
N   8.622   14.961   0.133
C   7.528   15.393   0.839
C   5.359   16.353   0.392
C   7.288   15.407   2.23
C   5.137   16.367   1.741
C   6.089   15.871   2.65
H   7.108   13.528   -3.087
H   4.809   14.984   -2.291
H   7.193   16.108   -3.384
H   6.041   16.944   -2.583
H   9.024   14.92   -1.937
H   9.448   14.566   0.533
H   4.658   16.671   -0.246
H   8.0   15.078   2.857
H   4.277   16.738   2.096
H   5.855   15.87   3.625
N   5.209   15.153   -5.496
C   4.497   15.391   -6.777
C   3.267   14.483   -6.991
O   2.194   14.945   -7.341
C   5.441   15.352   -7.99
C   4.694   15.638   -9.284
C   6.611   16.341   -7.819
H   6.174   14.771   -5.456
H   4.174   16.353   -6.773
H   5.805   14.425   -8.063
H   3.718   15.463   -9.152
H   4.828   16.594   -9.543
H   5.043   15.045   -10.01
H   7.132   16.371   -8.668
H   6.24   17.243   -7.611
H   7.19   16.026   -7.071
N   3.417   13.205   -6.741
C   2.288   12.291   -6.825
C   1.177   12.733   -5.847
O   0.028   12.834   -6.236
C   2.771   10.906   -6.492
S   1.481   9.707   -6.652
H   4.376   12.907   -6.486
H   1.909   12.331   -7.751
H   3.507   10.672   -7.116
H   3.097   10.905   -5.553
N   1.531   13.006   -4.589
C   0.555   13.528   -3.62
C   -0.177   14.794   -4.068
O   -1.388   14.813   -4.123
C   1.155   13.69   -2.231
H   2.521   12.825   -4.361
H   -0.14   12.8   -3.444
H   0.537   14.23   -1.66
H   1.288   12.79   -1.817
H   2.036   14.157   -2.3
N   0.557   15.819   -4.455
C   -0.05   17.01   -4.981
C   -0.951   16.721   -6.208
O   -1.978   17.36   -6.388
C   1.035   18.032   -5.292
H   1.583   15.688   -4.347
H   -0.632   17.438   -4.27
H   1.317   18.486   -4.448
H   1.822   17.57   -5.7
H   0.68   18.712   -5.933
N   -0.575   15.747   -7.035
H   0.318   15.286   -6.78
C   -4.63   10.18   -1.202
C   -3.225   9.713   -1.6
O   -3.039   9.053   -2.616
C   -5.042   11.382   -2.009
H   -5.297   9.464   -1.476
H   -5.792   11.138   -2.628
H   -5.349   12.116   -1.399
H   -4.266   11.713   -2.551
N   -2.243   10.038   -0.783
C   -0.902   9.537   -1.001
C   -0.846   8.062   -0.66
O   -0.274   7.271   -1.425
C   0.124   10.33   -0.192
C   1.504   9.693   -0.279
C   2.428   9.93   -1.23
C   2.066   8.709   0.602
N   3.538   9.172   -1.011
C   3.348   8.404   0.107
C   1.602   8.038   1.753
C   4.185   7.504   0.722
C   2.444   7.147   2.367
C   3.73   6.897   1.861
H   -2.506   10.661   0.001
H   -0.691   9.632   -1.977
H   0.204   11.235   -0.561
H   -0.132   10.328   0.755
H   2.32   10.574   -1.995
H   4.368   9.171   -1.575
H   0.689   8.212   2.105
H   5.096   7.303   0.343
H   2.141   6.666   3.187
H   4.321   6.256   2.356
N   -1.432   7.694   0.482
C   -1.496   6.316   0.889
C   -2.179   5.503   -0.204
O   -1.622   4.524   -0.649
C   -2.199   6.096   2.253
C   -2.06   4.663   2.803
C   -2.519   4.449   4.257
N   -3.845   5.032   4.487
C   -5.008   4.503   4.091
N   -5.063   3.333   3.456
N   -6.136   5.165   4.337
H   -1.827   8.485   1.033
H   -0.567   5.96   1.014
H   -1.794   6.716   2.911
H   -3.164   6.285   2.136
H   -2.594   4.034   2.217
H   -1.089   4.383   2.745
H   -2.553   3.473   4.423
H   -1.857   4.887   4.85
H   -3.885   5.912   4.989
H   -4.221   2.822   3.285
H   -5.942   2.969   3.155
H   -6.111   6.035   4.828
H   -7.012   4.79   4.03
N   -3.354   5.932   -0.653
C   -4.173   5.088   -1.525
C   -3.741   5.03   -2.969
O   -4.055   4.068   -3.686
C   -5.63   5.545   -1.446
C   -6.236   5.262   -0.097
H   -3.629   6.876   -0.346
H   -4.11   4.136   -1.151
H   -5.66   6.525   -1.614
H   -6.148   5.058   -2.142
O   -5.851   4.313   0.562
N   -7.204   6.087   0.317
H   -7.488   6.842   -0.276
H   -7.634   5.949   1.202
N   -3.004   6.044   -3.401
C   -2.693   6.241   -4.817
C   -1.201   6.402   -5.161
O   -0.828   6.245   -6.338
C   -3.509   7.439   -5.319
C   -4.99   7.245   -5.066
C   -5.778   8.418   -5.568
N   -5.955   8.38   -7.011
C   -6.677   9.251   -7.686
N   -7.272   10.252   -7.05
N   -6.788   9.121   -9.007
H   -2.666   6.687   -2.652
H   -3.053   5.437   -5.343
H   -3.211   8.241   -4.831
H   -3.366   7.524   -6.29
H   -5.301   6.425   -5.54
H   -5.148   7.152   -4.086
H   -6.675   8.409   -5.128
H   -5.292   9.256   -5.32
H   -5.497   7.643   -7.522
H   -7.171   10.377   -6.068
H   -7.839   10.904   -7.573
H   -6.31   8.38   -9.479
H   -7.349   9.766   -9.526
N   -0.344   6.696   -4.177
C   1.083   6.9   -4.428
C   1.536   8.307   -4.007
S   0.612   9.624   -4.791
H   -0.775   6.765   -3.235
H   1.229   6.825   -5.438
H   1.425   8.378   -3.02
H   2.499   8.4   -4.249
H   -1.12871   15.5076   -7.82324
H   1.72428   6.19481   -3.93537
H   5.94595   11.6799   -3.52505
H   -4.74428   10.3598   -0.147286
