369
2.xyz
C              12.46               42.066              13.729              
O              12.117              41.073              13.123              
N              13.323              42.046              14.743              
C              13.876              40.802              15.267              
C              12.784              39.929              15.884              
O              12.909              38.709              15.933              
C              14.973              41.101              16.293              
O              14.516              42.003              17.283              
H              13.565              42.985              15.124              
H              14.281              40.291              14.5                
H              15.244              40.248              16.73               
H              15.751              41.505              15.82               
H              13.814              42.598              16.894              
N              11.691              40.546              16.339              
C              10.583              39.781              16.905              
C              9.363               39.682              15.979              
O              8.517               38.833              16.186              
C              10.158              40.369              18.259              
C              11.299              40.637              19.238              
C              11.938              39.386              19.817              
O              11.396              38.279              19.622              
O              12.984              39.528              20.491              
H              11.7                41.573              16.257              
H              10.901              38.842              17.133              
H              9.71                41.231              18.082              
H              9.546               39.723              18.686              
H              12.004              41.136              18.757              
H              10.939              41.164              19.993              
N              9.262               40.584              15                  
C              8.169               40.636              14.043              
C              8.797               40.732              12.658              
O              8.774               41.778              12.014              
C              7.268               41.86               14.323              
C              5.947               41.714              13.59               
C              7.034               42.006              15.819              
H              10.065              41.272              14.982              
H              7.665               39.783              14.093              
H              7.725               42.659              13.95               
H              5.196               41.696              14.251              
H              5.821               42.487              12.967              
H              5.946               40.862              13.065              
H              6.395               42.757              15.982              
H              6.651               41.155              16.178              
H              7.904               42.201              16.272              
N              9.424               39.617              12.205              
C              10.277              39.699              11.027              
C              9.579               40.006              9.692               
O              10.234              40.464              8.769               
C              10.96               38.316              11                  
C              10.011              37.415              11.713              
C              9.478               38.286              12.828              
H              11.04               40.377              11.183              
H              11.103              38.018              10.054              
H              11.845              38.356              11.468              
H              9.274               37.125              11.109              
H              10.485              36.62               12.082              
H              8.569               37.992              13.114              
H              10.095              38.287              13.613              
N              8.281               39.769              9.589               
C              7.561               40.035              8.345               
C              6.868               41.409              8.349               
O              6.046               41.677              7.478               
C              6.515               38.95               8.091               
C              5.408               38.926              9.147               
O              5.607               39.452              10.264              
O              4.343               38.358              8.866               
H              7.831               39.39               10.44               
H              8.245               40.058              7.601               
H              6.099               39.12               7.205               
H              6.973               38.069              8.096               
N              7.182               42.253              9.323               
C              6.462               43.525              9.47                
C              6.6                 44.388              8.219               
O              5.621               44.974              7.746               
C              6.953               44.265              10.71               
C              6.11                45.459              11.089              
C              4.825               45.283              11.579              
C              6.609               46.742              10.961              
C              4.049               46.371              11.931              
C              5.846               47.846              11.323              
C              4.567               47.645              11.799              
O              3.827               48.758              12.14               
H              7.945               41.954              9.945               
H              5.485               43.318              9.603               
H              6.953               43.626              11.477              
H              7.884               44.584              10.538              
H              4.454               44.359              11.679              
H              7.531               46.883              10.605              
H              3.12                46.238              12.28               
H              6.219               48.765              11.239              
H              4.368               49.577              11.96               
N              7.799               44.442              7.647               
C              8.035               45.292              6.475               
C              7.555               44.646              5.17                
O              7.579               45.279              4.121               
C              9.513               45.669              6.36                
C              10.109              46.43               7.546               
C              11.581              46.702              7.287               
C              9.346               47.719              7.826               
H              8.525               43.855              8.083               
H              7.53                46.159              6.603               
H              10.036              44.827              6.255               
H              9.621               46.243              5.554               
H              10.012              45.877              8.368               
H              11.68               47.252              6.456               
H              11.972              47.2                8.062               
H              12.067              45.835              7.171               
H              8.392               47.503              8.037               
H              9.761               48.19               8.605               
H              9.384               48.311              7.02                
N              7.104               43.397              5.225               
C              6.451               42.803              4.063               
C              5.083               43.458              3.818               
O              4.557               43.405              2.707               
C              6.255               41.294              4.244               
C              7.566               40.538              4.388               
O              8.629               41.067              3.983               
O              7.515               39.402              4.904               
H              7.25                42.91               6.118               
H              7.018               43.009              3.261               
H              5.713               41.151              5.065               
H              5.774               40.949              3.446               
N              4.514               44.053              4.865               
C              3.166               44.606              4.826               
C              3.077               46.1                5.068               
O              2.113               46.736              4.64                
C              2.319               43.861              5.851               
C              2.268               42.362              5.622               
N              3.163               41.516              6.17                
C              1.381               41.574              4.883               
C              2.873               40.251              5.8                 
N              1.784               40.285              5.012               
H              5.12                44.089              5.718               
H              2.77                44.409              3.902               
H              2.691               44.017              6.77                
H              1.377               44.207              5.82                
H              3.933               41.759              6.763               
H              0.609               41.924              4.369               
H              3.373               39.445              6.061               
N              4.072               46.675              5.739               
C              4.003               48.071              6.195               
C              5.077               48.903              5.492               
O              6.264               48.625              5.619               
C              4.154               48.145              7.729               
C              3.047               47.335              8.428               
C              4.176               49.583              8.23                
C              1.632               47.771              8.099               
H              4.893               46.063              5.912               
H              3.12                48.422              5.885               
H              5.029               47.739              7.972               
H              3.158               46.372              8.175               
H              3.185               47.414              9.418               
H              4.346               49.59               9.214               
H              4.9                 50.087              7.763               
H              3.296               50.015              8.042               
H              1.479               47.68               7.116               
H              0.986               47.193              8.594               
H              1.509               48.723              8.372               
N              4.644               49.893              4.721               
C              5.558               50.726              3.929               
C              6.396               51.653              4.802               
O              7.588               51.838              4.546               
C              4.786               51.576              2.917               
C              4.084               50.8                1.813               
C              3.578               51.717              0.698               
C              2.646               52.824              1.186               
N              1.459               52.3                1.919               
H              3.612               50.03               4.723               
H              6.179               50.119              3.411               
H              4.094               52.104              3.417               
H              5.433               52.215              2.49                
H              4.725               50.14               1.417               
H              3.303               50.308              2.202               
H              4.369               52.143              0.252               
H              3.083               51.161              0.026               
H              3.164               53.437              1.793               
H              2.333               53.357              0.39                
H              1.754               51.911              2.791               
H              0.817               53.047              2.085               
H              1.016               51.593              1.369               
N              5.76                52.268              5.798               
C              6.418               53.272              6.629               
C              6.057               53.13               8.104               
O              5.057               53.671              8.561               
C              6.085               54.683              6.143               
C              6.907               55.763              6.837               
C              6.515               57.16               6.394               
C              7.09                58.216              7.328               
N              8.553               58.053              7.546               
H              4.772               51.975              5.929               
H              7.421               53.169              6.531               
H              6.268               54.73               5.168               
H              5.123               54.857              6.324               
H              6.771               55.686              7.829               
H              7.878               55.616              6.63                
H              6.869               57.321              5.479               
H              5.524               57.238              6.402               
H              6.914               59.126              6.935               
H              6.616               58.157              8.215               
H              8.709               57.607              8.427               
H              8.937               57.491              6.814               
H              8.991               58.952              7.543               
N              6.905               52.426              8.861               
C              6.761               52.284              10.3                
C              6.797               53.606              11.039              
O              7.485               54.543              10.614              
C              7.979               51.435              10.681              
C              8.225               50.621              9.471               
C              7.983               51.565              8.339               
H              5.909               51.771              10.526              
H              8.761               52.022              10.893              
H              7.771               50.861              11.473              
H              9.168               50.277              9.457               
H              7.594               49.842              9.431               
H              8.793               52.11               8.13                
H              7.679               51.087              7.515               
N              6.049               53.678              12.128              
C              6.06                54.854              12.983              
C              5.762               54.478              14.435              
O              5.053               53.502              14.726              
C              5.045               55.879              12.458              
C              5.107               57.246              13.123              
S              6.716               58.062              13.051              
C              7.162               57.965              11.316              
H              5.465               52.839              12.315              
H              6.981               55.26               12.953              
H              5.192               56.001              11.464              
H              4.112               55.505              12.584              
H              4.375               57.845              12.696              
H              4.796               57.14               14.107              
H              6.382               57.627              10.789              
H              7.418               58.874              10.985              
H              7.935               57.34               11.204              
N              6.285               55.277              15.344              
C              6.104               55.106              16.772              
C              6.358               56.455              17.432              
O              6.868               57.404              16.789              
C              7.119               54.082              17.292              
C              8.529               54.571              17.144              
O              9.092               54.457              16.04               
O              9.06                55.146              18.108              
H              6.858               56.067              14.937              
H              5.147               54.88               16.93               
H              6.925               53.926              18.251              
H              7.003               53.249              16.768              
N              6.039               56.553              18.712              
C              6.148               57.829              19.413              
C              7.596               58.291              19.64               
O              7.851               59.482              19.699              
C              5.392               57.821              20.745              
C              3.894               57.872              20.603              
C              3.268               58.877              19.869              
C              3.097               56.926              21.214              
C              1.883               58.913              19.749              
C              1.718               56.956              21.096              
C              1.106               57.939              20.349              
H              5.717               55.679              19.159              
H              5.713               58.531              18.821              
H              5.625               56.985              21.22               
H              5.677               58.617              21.259              
H              3.815               59.578              19.423              
H              3.527               56.195              21.759              
H              1.453               59.658              19.221              
H              1.161               56.247              21.567              
H              0.115               57.953              20.238              
N              8.537               57.364              19.783              
C              9.939               57.776              19.939              
C              10.427              58.409              18.643              
O              11.069              59.467              18.662              
C              10.817              56.595              20.339              
C              12.248              56.939              20.474              
C              12.701              57.601              21.592              
C              13.148              56.609              19.468              
C              14.046              57.918              21.724              
C              14.487              56.934              19.588              
C              14.934              57.59               20.717              
H              8.221               56.393              19.776              
H              9.953               58.491              20.637              
H              10.488              56.261              21.212              
H              10.723              55.902              19.637              
H              12.068              57.857              22.317              
H              12.822              56.132              18.652              
H              14.365              58.388              22.556              
H              15.132              56.69               18.845              
H              15.903              57.83               20.811              
N              10.094              57.803              17.515              
C              10.428              58.349              16.208              
C              9.78                59.745              15.989              
O              10.416              60.663              15.442              
C              10.035              57.382              15.075              
O              10.794              56.162              15.201              
C              10.334              58.006              13.72               
H              9.574               56.905              17.641              
H              11.426              58.466              16.146              
H              9.048               57.149              15.167              
H              9.82                58.861              13.618              
H              11.314              58.202              13.645              
H              10.068              57.374              12.988              
H              10.202              55.419              15.525              
N              8.532               59.904              16.424              
C              7.873               61.202              16.337              
C              8.599               62.23               17.205              
O              8.741               63.406              16.837              
C              6.411               61.111              16.783              
C              5.503               60.421              15.783              
S              3.749               60.604              16.112              
C              3.519               62.358              15.698              
H              8.09                59.058              16.814              
H              7.918               61.516              15.384              
H              6.368               60.607              17.656              
H              6.061               62.044              16.943              
H              5.739               60.775              14.837              
H              5.767               59.419              15.745              
H              4.401               62.749              15.447              
H              2.884               62.429              14.933              
H              3.149               62.832              16.493              
N              9.067               61.824              18.373              
C              9.767               62.766              19.252              
C              11.092              63.191              18.586              
O              11.473              64.366              18.607              
C              9.992               62.155              20.631              
C              10.624              63.088              21.645              
C              11.019              62.346              22.912              
C              11.564              63.248              24.01               
N              10.503              64.13               24.576              
H              8.907               60.836              18.605              
H              9.202               63.578              19.377              
H              9.105               61.856              20.989              
H              10.588              61.355              20.525              
H              11.443              63.501              21.245              
H              9.971               63.807              21.883              
H              10.212              61.866              23.269              
H              11.723              61.667              22.683              
H              11.942              62.677              24.742              
H              12.296              63.818              23.63               
H              10.24               64.81               23.893              
H              9.709               63.575              24.822              
H              10.856              64.591              25.389              
N              11.778              62.238              17.954              
C              13.017              62.562              17.244              
C              12.755              63.534              16.107              
O              13.51               64.512              15.924              
C              13.675              61.329              16.683              
C              14.29               60.441              17.737              
C              14.896              59.201              17.113              
H              11.376              61.293              18.007              
H              13.638              63.009              17.898              
H              12.992              60.79               16.183              
H              14.401              61.604              16.046              
H              15.008              60.943              18.206              
H              13.585              60.161              18.379              
O              14.289              58.567              16.246              
N              16.093              58.849              17.545              
H              16.561              58.018              17.183              
H              16.553              59.423              18.253              
N              11.687              63.278              15.361              
C              11.276              64.154              14.272              
C              10.087              63.556              13.52               
C              10.457              62.333              12.704              
H              11.175              62.408              15.619              
H              12.068              64.255              13.653              
H              9.392               63.295              14.186              
H              9.722               64.251              12.904              
O              11.631              62.057              12.444              
N              9.449               61.605              12.288              
H              8.503               61.855              12.497              
H              9.619               60.771              11.743              
H              12.0614             43.016              13.4484             
H              11.0211             65.1594             14.6282             
