321

C   -5.286   61.542   22.801
C   -4.269   62.671   22.966
O   -4.168   63.307   24.027
C   -6.098   61.336   24.09
C   -7.103   62.446   24.34
H   -5.911   61.815   22.057
H   -6.589   60.472   24.014
H   -5.462   61.302   24.857
O   -7.219   63.38   23.555
N   -7.838   62.342   25.434
H   -7.711   61.562   26.052
H   -8.522   63.039   25.652
N   -3.517   62.907   21.896
C   -2.602   64.034   21.805
C   -3.076   64.941   20.654
O   -2.445   64.991   19.591
C   -1.173   63.533   21.554
C   -0.666   62.401   22.451
C   0.694   61.94   21.955
C   -0.603   62.847   23.902
H   -3.641   62.21   21.123
H   -2.644   64.558   22.648
H   -1.127   63.208   20.61
H   -0.554   64.308   21.673
H   -1.309   61.644   22.412
H   1.339   62.705   21.985
H   1.031   61.2   22.538
H   0.614   61.61   21.014
H   -1.517   63.116   24.211
H   -0.27   62.094   24.471
H   0.019   63.627   23.987
N   -4.204   65.66   20.853
C   -4.818   66.355   19.709
C   -4.024   67.493   19.069
O   -4.293   67.813   17.907
C   -6.146   66.883   20.282
C   -5.896   67.022   21.734
C   -4.994   65.869   22.08
H   -5.09   65.664   18.988
H   -6.378   67.766   19.863
H   -6.887   66.232   20.097
H   -5.448   67.897   21.939
H   -6.754   66.969   22.252
H   -4.393   66.092   22.85
H   -5.52   65.045   22.303
N   -3.072   68.095   19.79
C   -2.238   69.158   19.206
C   -0.989   68.618   18.501
O   -0.237   69.379   17.896
C   -1.833   70.191   20.267
C   -1.064   69.576   21.422
O   -0.999   68.337   21.475
O   -0.536   70.326   22.281
H   -2.976   67.761   20.759
H   -2.799   69.619   18.501
H   -1.26   70.872   19.827
H   -2.662   70.608   20.619
N   -0.77   67.307   18.554
C   0.495   66.731   18.058
C   0.812   67.099   16.61
O   1.924   67.536   16.309
C   0.557   65.211   18.243
C   1.928   64.682   17.882
C   2.972   64.721   18.783
C   2.192   64.199   16.611
C   4.235   64.266   18.439
C   3.444   63.752   16.268
C   4.459   63.774   17.181
O   5.711   63.317   16.81
H   -1.531   66.743   18.957
H   1.246   67.083   18.645
H   0.381   65.005   19.189
H   -0.104   64.797   17.643
H   2.82   65.086   19.707
H   1.454   64.176   15.933
H   4.978   64.299   19.114
H   3.614   63.405   15.334
H   6.399   63.757   17.382
N   -0.172   66.975   15.73
C   0.053   67.262   14.313
C   -0.238   68.715   13.94
O   -0.053   69.119   12.782
C   -0.708   66.249   13.454
C   -0.082   64.859   13.504
C   1.168   64.617   12.94
C   -0.724   63.795   14.122
C   1.745   63.358   12.972
C   -0.14   62.533   14.167
C   1.102   62.319   13.589
O   1.707   61.055   13.618
H   -1.078   66.67   16.116
H   1.029   67.075   14.105
H   -1.634   66.181   13.793
H   -0.692   66.558   12.514
H   1.663   65.372   12.499
H   -1.618   63.935   14.543
H   2.644   63.213   12.538
H   -0.619   61.777   14.618
H   1.204   60.479   14.253
N   -0.653   69.506   14.926
C   -0.64   70.966   14.816
C   0.785   71.493   15.017
O   1.19   72.488   14.421
C   -1.572   71.612   15.842
C   -3.02   71.116   15.808
C   -3.915   71.992   16.681
C   -4.991   71.204   17.423
N   -6.014   70.587   16.536
H   -0.985   69.003   15.776
H   -0.951   71.227   13.9
H   -1.205   71.432   16.757
H   -1.58   72.601   15.68
H   -3.351   71.15   14.869
H   -3.05   70.181   16.149
H   -3.344   72.461   17.357
H   -4.365   72.671   16.1
H   -4.541   70.476   17.964
H   -5.453   71.825   18.077
H   -6.195   71.196   15.764
H   -5.674   69.71   16.197
H   -6.857   70.442   17.053
N   1.53   70.806   15.872
C   2.881   71.21   16.263
C   3.945   70.554   15.38
O   4.94   71.194   15.018
C   3.105   70.885   17.767
C   2.236   71.816   18.621
C   4.573   71.019   18.173
C   2.0   71.351   20.043
H   1.068   69.942   16.248
H   2.94   72.2   16.093
H   2.808   69.956   17.921
H   2.672   72.72   18.643
H   1.346   71.916   18.165
H   4.673   70.773   19.134
H   5.128   70.409   17.611
H   4.868   71.962   18.036
H   2.877   71.267   20.513
H   1.427   72.017   20.518
H   1.541   70.464   20.029
N   3.715   69.289   15.034
C   4.644   68.492   14.26
C   4.117   68.341   12.837
O   3.217   67.54   12.574
C   4.865   67.108   14.918
C   5.44   67.28   16.335
C   5.77   66.231   14.055
C   6.716   68.088   16.406
H   2.791   68.919   15.376
H   5.49   69.021   14.194
H   3.982   66.664   14.998
H   4.742   67.72   16.903
H   5.615   66.366   16.709
H   5.856   65.33   14.475
H   5.371   66.139   13.145
H   6.671   66.654   13.984
H   6.548   69.006   16.049
H   7.017   68.149   17.357
H   7.423   67.641   15.859
N   4.667   69.133   11.928
C   4.249   69.087   10.529
C   5.14   68.209   9.642
O   4.833   68.013   8.478
C   4.17   70.5   9.974
C   3.159   71.385   10.685
C   1.742   70.813   10.623
C   0.697   71.875   10.909
N   -0.655   71.292   11.147
H   5.4   69.772   12.285
H   3.298   68.724   10.484
H   5.07   70.924   10.06
H   3.915   70.446   9.01
H   3.424   71.478   11.648
H   3.156   72.292   10.257
H   1.587   70.448   9.711
H   1.66   70.091   11.303
H   0.976   72.398   11.722
H   0.648   72.505   10.126
H   -1.212   71.947   11.656
H   -1.088   71.094   10.269
H   -0.562   70.448   11.674
N   6.238   67.694   10.184
C   7.142   66.807   9.436
C   7.395   65.551   10.263
O   8.519   65.289   10.69
C   8.462   67.519   9.075
O   8.166   68.787   8.471
C   9.251   66.687   8.083
H   6.406   67.967   11.174
H   6.692   66.543   8.586
H   8.987   67.689   9.931
H   9.357   65.751   8.428
H   8.771   66.657   7.202
H   10.16   67.088   7.946
H   7.789   69.419   9.155
N   6.339   64.755   10.486
C   6.492   63.574   11.324
C   7.384   62.525   10.69
O   7.453   62.426   9.478
C   5.067   63.047   11.457
C   4.361   63.538   10.241
C   4.971   64.877   9.956
H   6.838   63.83   12.244
H   5.062   62.042   11.495
H   4.634   63.4   12.293
H   4.502   62.908   9.472
H   3.375   63.621   10.415
H   4.992   65.071   8.973
H   4.478   65.615   10.424
N   8.084   61.775   11.516
C   8.915   60.677   11.02
C   9.099   59.675   12.137
O   9.083   60.034   13.307
C   10.273   61.201   10.535
C   11.143   60.159   9.841
S   10.362   59.245   8.499
C   9.789   60.55   7.408
H   8.002   62.018   12.519
H   8.426   60.232   10.273
H   10.117   61.964   9.892
H   10.784   61.564   11.328
H   12.006   60.637   9.506
H   11.501   59.506   10.57
H   10.369   60.583   6.594
H   8.844   60.367   7.136
H   9.834   61.428   7.885
N   9.278   58.417   11.759
C   9.387   57.32   12.705
C   10.2   56.203   12.068
O   10.405   56.186   10.852
C   8.009   56.774   13.04
C   7.359   56.127   11.85
O   6.747   56.865   11.035
O   7.485   54.887   11.711
H   9.334   58.283   10.721
H   9.909   57.652   13.49
H   8.112   56.098   13.76
H   7.444   57.529   13.347
N   10.647   55.266   12.889
C   11.542   54.217   12.423
C   10.824   53.167   11.59
O   11.458   52.513   10.763
C   12.276   53.54   13.585
C   13.297   54.43   14.275
S   14.564   53.431   15.087
C   13.608   52.584   16.349
H   10.313   55.342   13.868
H   12.252   54.645   11.84
H   11.598   53.242   14.269
H   12.75   52.721   13.237
H   13.714   55.047   13.585
H   12.818   55.019   14.949
H   12.791   52.182   15.935
H   14.164   51.861   16.76
H   13.336   53.237   17.056
N   9.517   53.018   11.787
C   8.734   52.101   10.97
C   8.756   52.553   9.517
O   8.996   51.769   8.595
H   9.12   53.594   12.549
H   9.119   51.177   11.037
H   7.787   52.083   11.298
N   8.492   53.831   9.326
C   8.6   54.466   8.026
C   10.004   54.357   7.433
O   10.154   54.03   6.258
C   8.183   55.929   8.136
O   6.809   55.977   8.564
C   8.361   56.655   6.804
H   8.199   54.347   10.19
H   7.955   54.011   7.389
H   8.747   56.387   8.846
H   7.835   56.187   6.092
H   8.036   57.599   6.888
H   9.33   56.66   6.55
H   6.754   56.289   9.517
N   11.021   54.637   8.237
C   12.395   54.572   7.768
C   12.737   53.143   7.327
O   13.33   52.937   6.277
C   13.393   55.078   8.841
C   13.144   56.566   9.125
C   14.827   54.819   8.391
C   13.778   57.072   10.395
H   10.755   54.9   9.205
H   12.444   55.14   6.944
H   13.223   54.572   9.675
H   13.494   57.094   8.35
H   12.153   56.708   9.178
H   15.458   55.111   9.107
H   14.949   53.844   8.217
H   15.011   55.333   7.555
H   14.769   56.947   10.347
H   13.571   58.044   10.508
H   13.416   56.562   11.175
N   12.342   52.162   8.124
C   12.57   50.761   7.796
C   11.924   50.4   6.458
O   12.545   49.774   5.609
C   12.01   49.864   8.892
C   12.243   48.388   8.677
C   11.916   47.643   9.956
C   12.207   46.175   9.824
N   11.138   45.51   9.038
H   11.861   52.473   8.994
H   13.561   50.597   7.727
H   12.436   50.129   9.76
H   11.022   50.024   8.951
H   11.648   48.062   7.953
H   13.195   48.233   8.447
H   12.47   48.018   10.695
H   10.948   47.765   10.159
H   13.082   46.05   9.358
H   12.25   45.761   10.733
H   10.962   46.034   8.204
H   11.429   44.584   8.795
H   10.302   45.464   9.585
N   10.672   50.804   6.271
H   10.258   51.335   7.055
H   10.1821   50.5931   5.41198
H   -4.82379   60.6292   22.5026
