367

C   0.756   13.451   26.74
C   1.899   14.247   27.345
O   1.663   15.0   28.266
C   -0.374   13.248   27.81
C   -1.675   12.847   27.192
O   -1.985   13.317   26.072
O   -2.4   12.031   27.81
H   0.291   14.064   26.045
H   -0.058   12.539   28.425
H   -0.475   14.111   28.284
N   3.133   14.127   26.82
C   4.177   15.064   27.164
C   3.906   16.355   26.375
O   3.516   16.299   25.202
C   5.572   14.561   26.784
C   6.191   13.523   27.725
C   7.504   12.973   27.16
N   7.147   12.077   26.06
C   7.679   12.071   24.845
N   8.719   12.839   24.559
N   7.202   11.216   23.941
H   3.248   13.33   26.174
H   4.131   15.276   28.133
H   5.519   14.15   25.871
H   6.192   15.349   26.751
H   6.386   13.947   28.602
H   5.562   12.763   27.837
H   8.026   13.722   26.82
H   7.95   12.469   27.865
H   6.415   11.388   26.247
H   9.134   13.421   25.256
H   9.1   12.838   23.627
H   6.472   10.58   24.183
H   7.58   11.212   23.013
N   4.151   17.488   27.029
C   4.2   18.789   26.322
C   5.66   19.096   26.069
O   6.475   19.303   27.01
C   3.582   19.907   27.184
C   2.091   19.91   27.032
C   1.441   18.866   27.889
C   0.179   18.35   27.213
N   -0.619   17.582   28.202
H   4.301   17.392   28.045
H   3.727   18.694   25.458
H   3.814   19.727   28.122
H   3.945   20.765   26.869
H   1.734   20.815   27.29
H   1.855   19.738   26.069
H   2.062   18.104   28.012
H   1.187   19.262   28.761
H   -0.352   19.122   26.886
H   0.435   17.756   26.46
H   -0.022   17.268   28.94
H   -1.336   18.169   28.579
H   -1.037   16.792   27.752
N   6.046   19.086   24.759
C   7.445   19.226   24.363
C   7.665   20.365   23.376
O   6.703   20.839   22.772
C   7.994   17.905   23.691
C   7.661   16.692   24.64
C   7.322   17.653   22.306
H   5.261   18.972   24.093
H   7.987   19.427   25.196
H   8.969   17.972   23.662
H   8.415   16.05   24.594
H   7.553   17.043   25.561
H   6.821   16.274   24.321
H   8.04   17.527   21.63
H   6.76   16.837   22.377
H   6.764   18.444   22.082
N   8.88   20.79   23.309
C   9.275   21.778   22.282
C   9.978   20.929   21.196
O   10.958   20.239   21.465
C   10.274   22.789   22.85
C   9.691   23.782   23.831
C   8.65   24.707   23.217
C   8.452   25.894   24.175
N   7.086   26.431   23.914
H   9.549   20.41   23.998
H   8.473   22.178   21.896
H   11.003   22.278   23.311
H   10.67   23.297   22.081
H   9.261   23.278   24.594
H   10.436   24.347   24.213
H   8.984   25.051   22.364
H   7.8   24.231   23.135
H   8.51   25.569   25.098
H   9.123   26.58   23.972
H   7.137   27.423   23.802
H   6.722   26.017   23.081
H   6.491   26.21   24.686
N   9.465   20.994   19.96
C   10.01   20.126   18.88
C   10.634   20.918   17.779
O   10.155   22.007   17.442
C   8.948   19.276   18.222
O   8.539   18.399   19.258
H   8.703   21.658   19.824
H   10.716   19.539   19.306
H   8.201   19.834   17.96
H   9.344   18.761   17.504
H   7.812   17.802   18.921
N   11.726   20.392   17.212
C   12.213   20.997   15.949
C   12.5   19.839   15.023
O   13.152   18.864   15.431
C   13.511   21.799   16.15
O   13.333   22.769   17.22
C   13.89   22.541   14.915
H   12.156   19.611   17.68
H   11.484   21.543   15.571
H   14.257   21.164   16.431
H   13.112   23.083   14.573
H   14.656   23.17   15.099
H   14.173   21.902   14.189
H   12.384   22.75   17.54
N   12.087   19.991   13.756
C   12.345   18.975   12.731
C   13.152   19.576   11.616
O   12.851   20.663   11.139
C   11.044   18.386   12.191
C   10.385   17.696   13.41
C   11.362   17.389   11.09
C   8.974   17.149   13.069
H   11.578   20.875   13.571
H   12.917   18.281   13.172
H   10.461   19.114   11.915
H   10.952   16.943   13.693
H   10.292   18.359   14.133
H   10.52   16.948   10.784
H   11.785   17.864   10.32
H   11.992   16.696   11.438
H   9.065   16.487   12.335
H   8.601   16.719   13.883
H   8.405   17.911   12.784
N   14.246   18.891   11.289
C   15.169   19.328   10.208
C   15.389   18.164   9.252
O   15.037   17.003   9.496
C   16.552   19.815   10.731
O   17.09   18.774   11.584
C   16.341   21.103   11.557
H   14.407   18.028   11.845
H   14.732   20.074   9.714
H   17.174   19.93   9.944
H   16.341   21.891   10.943
H   15.465   21.048   12.034
H   17.082   21.193   12.221
H   16.346   18.199   11.932
N   15.952   18.498   8.08
C   16.375   17.424   7.161
C   17.872   17.469   7.135
O   18.442   18.538   6.851
C   15.871   17.755   5.769
C   14.765   17.023   5.102
C   14.593   17.584   3.681
C   14.938   15.512   5.044
H   16.054   19.49   7.896
H   16.076   16.561   7.539
H   15.613   18.758   5.781
H   16.692   17.712   5.141
H   13.912   17.154   5.596
H   15.443   17.456   3.174
H   13.851   17.097   3.225
H   14.375   18.556   3.738
H   15.004   15.147   5.973
H   14.151   15.103   4.581
H   15.773   15.29   4.54
N   18.497   16.376   7.496
C   19.92   16.176   7.489
C   20.262   15.093   6.431
O   20.047   13.899   6.659
C   20.386   15.667   8.841
C   21.926   15.65   8.966
O   22.621   16.316   8.121
O   22.428   14.965   9.896
H   17.824   15.601   7.814
H   20.354   17.017   7.173
H   20.031   16.264   9.547
H   20.061   14.74   8.963
N   20.785   15.513   5.27
C   20.978   14.515   4.199
C   19.537   14.135   3.816
O   18.68   14.972   3.639
H   21.015   16.49   5.2
H   21.42   14.928   3.438
H   21.438   13.736   4.553
N   19.262   12.884   3.701
C   17.866   12.611   3.362
C   17.043   12.126   4.526
O   15.983   11.476   4.303
H   19.969   12.202   3.84
H   17.449   13.46   2.98
H   17.839   11.918   2.613
N   17.502   12.48   5.736
C   16.878   11.986   7.001
C   16.097   13.096   7.678
O   16.629   14.161   7.913
C   17.928   11.459   7.97
C   17.297   10.928   9.268
C   18.837   10.396   7.32
H   18.316   13.117   5.727
H   16.243   11.252   6.751
H   18.52   12.22   8.237
H   17.983   10.413   9.777
H   16.978   11.699   9.814
H   16.529   10.334   9.038
H   19.408   9.988   8.027
H   18.263   9.7   6.897
H   19.405   10.839   6.632
N   14.821   12.855   7.971
C   14.102   13.847   8.767
C   14.455   13.61   10.23
O   14.26   12.5   10.743
C   12.557   13.728   8.635
C   11.817   14.308   7.463
C   10.398   13.71   7.413
C   11.888   15.836   7.562
H   14.428   11.992   7.62
H   14.415   14.753   8.508
H   12.344   12.729   8.675
H   12.167   14.137   9.485
H   12.287   14.081   6.616
H   9.921   13.935   8.259
H   9.91   14.097   6.634
H   10.466   12.72   7.314
H   12.845   16.123   7.543
H   11.4   16.239   6.789
H   11.465   16.13   8.418
N   14.975   14.621   10.905
C   15.403   14.424   12.288
C   14.473   15.287   13.162
O   14.424   16.503   13.003
C   16.834   14.975   12.406
C   17.366   14.95   13.826
C   17.796   14.155   11.491
H   15.049   15.51   10.401
H   15.254   13.478   12.533
H   16.813   15.938   12.117
H   18.187   15.519   13.888
H   16.67   15.304   14.452
H   17.595   14.01   14.083
H   17.614   14.404   10.546
H   18.731   14.382   11.74
H   17.618   13.189   11.64
N   13.79   14.686   14.139
C   12.796   15.354   14.96
C   13.342   15.298   16.396
O   13.532   14.178   16.946
C   11.51   14.543   14.8
C   10.324   15.017   15.614
N   10.452   16.075   16.466
C   9.0   14.597   15.683
C   9.264   16.297   17.057
N   8.385   15.418   16.6
H   14.041   13.67   14.262
H   12.738   16.301   14.693
H   11.234   14.548   13.824
H   11.693   13.579   15.057
H   8.601   13.859   15.172
H   9.085   17.007   17.729
H   7.423   15.362   16.877
N   13.69   16.466   16.994
C   14.159   16.468   18.367
C   13.028   17.051   19.254
O   12.45   18.073   18.882
C   15.384   17.338   18.457
C   15.842   17.441   19.92
C   16.502   16.758   17.565
H   13.59   17.297   16.403
H   14.309   15.531   18.659
H   15.144   18.262   18.177
H   16.579   18.111   19.985
H   15.072   17.73   20.484
H   16.168   16.549   20.224
H   16.426   17.159   16.656
H   17.384   16.986   17.969
H   16.391   15.769   17.516
N   12.687   16.341   20.35
C   11.654   16.749   21.322
C   12.361   17.032   22.645
O   13.141   16.164   23.113
C   10.647   15.646   21.574
C   9.799   15.318   20.351
C   8.828   14.177   20.579
O   9.02   13.292   21.484
N   7.717   14.219   19.806
H   13.235   15.448   20.455
H   11.252   17.596   21.0
H   11.131   14.814   21.843
H   10.029   15.926   22.309
H   9.277   16.136   20.096
H   10.411   15.072   19.595
H   7.02   13.478   19.889
H   7.603   14.984   19.163
N   12.078   18.188   23.265
C   12.706   18.613   24.528
C   11.636   18.858   25.536
O   10.61   19.471   25.247
C   13.477   19.967   24.339
C   14.48   20.012   23.227
C   15.861   19.521   23.671
C   16.925   19.491   22.553
N   18.171   18.697   22.869
H   11.362   18.771   22.768
H   13.307   17.876   24.841
H   12.779   20.677   24.188
H   13.939   20.159   25.214
H   14.171   19.431   22.468
H   14.575   20.955   22.893
H   16.198   20.123   24.402
H   15.771   18.589   24.037
H   16.5   19.107   21.717
H   17.194   20.445   22.342
H   18.839   19.303   23.291
H   17.931   17.961   23.495
H   18.535   18.322   22.021
N   11.848   18.366   26.758
C   10.887   18.645   27.837
C   11.615   18.334   29.133
O   12.465   17.422   29.213
C   9.609   17.822   27.691
C   9.759   16.391   28.081
C   9.29   15.79   29.24
C   10.513   15.351   27.367
N   9.68   14.484   29.297
C   10.402   14.15   28.179
C   11.195   15.287   26.122
C   11.005   12.961   27.805
C   11.802   14.069   25.764
C   11.684   12.938   26.576
H   12.695   17.805   26.874
H   10.692   19.612   27.82
H   8.904   18.217   28.273
H   9.32   17.843   26.738
H   8.742   16.262   29.931
H   9.471   13.846   30.052
H   11.244   16.067   25.524
H   10.962   12.148   28.385
H   12.32   14.029   24.918
H   12.097   12.075   26.276
N   11.351   19.178   30.129
C   11.809   18.902   31.504
C   13.238   18.53   31.576
O   13.578   17.579   32.264
C   10.976   17.769   32.113
C   9.53   18.19   32.458
O   9.142   19.364   32.317
O   8.749   17.333   32.844
H   10.814   20.019   29.868
H   11.677   19.768   32.022
H   10.931   17.026   31.456
H   11.418   17.47   32.95
N   14.116   19.266   30.884
C   15.515   18.957   30.883
C   15.94   17.736   30.112
O   17.134   17.444   30.104
H   13.688   20.06   30.364
H   16.042   19.775   30.526
H   15.841   18.861   31.863
N   14.991   17.048   29.446
H   14.048   17.468   29.472
H   0.976551   12.5273   26.2166
H   15.1985   16.1619   28.9457
