290

C   -4.223   68.058   46.062
O   -4.064   69.196   45.641
N   -5.101   67.751   47.006
C   -5.843   68.804   47.762
C   -4.837   69.604   48.625
O   -4.963   70.813   48.756
C   -6.939   68.276   48.699
C   -8.027   67.494   47.988
O   -8.227   67.737   46.773
O   -8.701   66.623   48.644
H   -5.236   66.742   47.182
H   -6.214   69.434   47.089
H   -6.504   67.682   49.372
H   -7.353   69.059   49.156
N   -3.804   68.926   49.107
C   -2.852   69.466   50.027
C   -1.593   69.928   49.369
O   -1.072   70.97   49.713
C   -2.58   68.409   51.122
C   -3.887   68.339   51.981
C   -1.476   68.848   51.998
C   -3.885   67.241   52.912
H   -3.752   67.932   48.74
H   -3.286   70.289   50.442
H   -2.466   67.543   50.695
H   -3.962   69.219   52.45
H   -4.643   68.262   51.33
H   -1.345   68.201   52.757
H   -0.614   68.906   51.483
H   -1.67   69.755   52.389
H   -3.112   67.311   53.562
H   -4.739   67.217   53.455
H   -3.802   66.353   52.434
N   -1.052   69.092   48.491
C   0.183   69.383   47.811
C   -0.116   69.861   46.399
O   -0.455   69.057   45.499
C   1.069   68.109   47.768
C   2.286   68.324   46.907
C   1.43   67.746   49.191
H   -1.601   68.214   48.343
H   0.649   70.128   48.295
H   0.525   67.387   47.346
H   3.042   68.674   47.465
H   2.565   67.458   46.487
H   2.08   68.986   46.183
H   0.61   67.785   49.765
H   1.809   66.819   49.214
H   2.111   68.393   49.539
N   -0.019   71.185   46.214
C   -0.31   71.812   44.938
C   0.796   71.691   43.91
O   0.51   71.844   42.742
C   -0.656   73.326   45.129
C   -1.904   73.593   45.991
C   -3.131   72.791   45.535
C   -4.371   73.143   46.373
N   -5.384   72.063   46.092
H   0.281   71.712   47.062
H   -1.159   71.388   44.553
H   0.125   73.761   45.565
H   -0.808   73.716   44.226
H   -1.696   73.349   46.942
H   -2.124   74.57   45.946
H   -3.321   73.009   44.588
H   -2.942   71.825   45.647
H   -4.133   73.126   47.32
H   -4.724   74.004   46.077
H   -5.551   71.552   46.931
H   -6.228   72.488   45.776
H   -5.022   71.457   45.389
N   2.034   71.471   44.312
C   3.142   71.336   43.354
C   4.017   70.136   43.713
O   5.047   70.306   44.35
C   3.971   72.629   43.344
C   3.235   73.776   42.773
H   2.164   71.402   45.338
H   2.733   71.146   42.458
H   4.228   72.83   44.29
H   4.795   72.455   42.805
O   3.066   73.864   41.556
N   2.641   74.542   43.595
H   2.669   74.387   44.595
H   2.109   75.35   43.271
N   3.612   68.942   43.345
C   4.363   67.737   43.67
C   5.696   67.79   42.981
O   5.81   68.464   41.957
C   3.522   66.597   43.084
C   2.12   67.164   42.919
C   2.375   68.631   42.596
H   4.467   67.638   44.662
H   3.885   66.304   42.194
H   3.506   65.807   43.703
H   1.653   66.713   42.171
H   1.611   67.071   43.764
H   2.514   68.764   41.617
H   1.619   69.204   42.91
N   6.681   67.136   43.546
C   8.016   67.12   42.991
C   8.658   65.81   43.452
O   8.46   65.402   44.612
C   8.794   68.318   43.457
C   10.161   68.537   42.789
S   10.279   68.4   41.012
C   9.188   69.677   40.413
H   6.423   66.63   44.426
H   7.953   67.095   42.003
H   8.244   69.163   43.307
H   8.955   68.252   44.461
H   10.514   69.476   43.12
H   10.841   67.883   43.264
H   8.422   69.796   41.049
H   9.688   70.542   40.336
H   8.83   69.423   39.512
N   9.464   65.195   42.602
C   10.138   63.966   43.002
C   11.516   63.884   42.34
O   11.844   64.672   41.45
C   9.334   62.765   42.614
C   9.379   62.508   41.135
O   8.912   63.386   40.328
O   9.973   61.459   40.748
H   9.568   65.637   41.681
H   10.293   64.017   43.992
H   9.702   61.969   43.086
H   8.387   62.915   42.883
N   12.296   62.899   42.736
C   13.683   62.821   42.255
C   13.741   62.619   40.744
O   14.627   63.2   40.088
C   14.493   61.741   42.916
C   14.689   61.902   44.436
C   15.246   60.613   44.999
C   15.592   63.108   44.773
H   11.878   62.218   43.38
H   14.145   63.688   42.48
H   14.036   60.868   42.778
H   15.4   61.727   42.511
H   13.809   62.1   44.85
H   16.126   60.407   44.567
H   15.378   60.704   45.988
H   14.608   59.862   44.82
H   15.169   63.938   44.418
H   15.69   63.172   45.763
H   16.485   62.972   44.35
N   12.852   61.785   40.205
C   12.89   61.493   38.768
C   12.587   62.774   37.921
O   13.137   62.984   36.849
C   11.995   60.312   38.407
O   10.654   60.708   38.375
H   12.168   61.382   40.855
H   13.817   61.196   38.528
H   12.263   59.972   37.511
H   12.115   59.601   39.094
H   10.363   61.007   39.286
N   11.698   63.595   38.429
C   11.378   64.84   37.781
C   12.52   65.796   37.839
O   12.865   66.465   36.815
C   10.087   65.424   38.39
O   9.004   64.467   38.218
C   9.725   66.707   37.726
H   11.258   63.275   39.316
H   11.161   64.649   36.808
H   10.222   65.561   39.387
H   10.513   67.335   37.711
H   9.433   66.546   36.775
H   8.969   67.161   38.215
H   8.894   63.927   39.054
N   13.148   65.891   38.988
C   14.307   66.776   39.088
C   15.405   66.321   38.13
O   16.066   67.125   37.426
C   14.758   66.817   40.53
C   13.699   67.517   41.358
C   16.071   67.561   40.717
C   13.978   67.34   42.831
H   12.784   65.331   39.76
H   14.003   67.675   38.768
H   14.841   65.885   40.861
H   13.705   68.479   41.141
H   12.819   67.12   41.15
H   16.327   67.55   41.682
H   16.786   67.117   40.179
H   15.966   68.506   40.412
H   14.872   67.73   43.05
H   13.272   67.807   43.362
H   13.975   66.366   43.056
N   15.595   65.006   38.056
C   16.582   64.472   37.151
C   16.276   64.782   35.693
O   17.177   65.098   34.947
C   16.629   62.947   37.341
C   17.698   62.22   36.518
C   17.634   60.752   36.98
C   17.712   59.854   35.816
N   19.149   60.052   35.506
H   14.999   64.44   38.676
H   17.491   64.869   37.378
H   16.802   62.759   38.309
H   15.735   62.575   37.087
H   17.466   62.264   35.575
H   18.574   62.581   36.733
H   18.402   60.594   37.588
H   16.774   60.623   37.457
H   17.568   58.946   36.078
H   17.184   60.189   35.093
H   19.706   59.562   36.177
H   19.345   59.7   34.59
H   19.367   61.028   35.541
N   15.004   64.609   35.311
C   14.548   64.927   33.955
C   14.803   66.418   33.643
O   15.272   66.718   32.529
C   13.066   64.632   33.789
C   12.526   64.835   32.372
C   11.278   64.03   32.061
N   10.246   64.173   33.074
C   9.228   65.068   33.052
N   8.352   65.087   34.075
N   9.022   65.91   32.026
H   14.378   64.235   36.051
H   15.065   64.376   33.298
H   12.901   63.68   34.042
H   12.551   65.234   34.397
H   12.312   65.81   32.24
H   13.239   64.575   31.71
H   10.922   64.341   31.178
H   11.543   63.067   31.99
H   10.278   63.552   33.878
H   8.453   64.475   34.845
H   7.587   65.739   34.046
H   9.684   65.86   31.263
H   8.272   66.534   32.025
N   14.545   67.309   34.597
C   14.865   68.75   34.44
C   16.337   69.028   34.238
O   16.678   69.828   33.436
C   14.338   69.572   35.596
C   12.761   69.552   35.585
C   12.103   70.431   36.667
C   12.352   71.944   36.51
N   11.593   72.669   37.578
H   14.106   66.923   35.454
H   14.346   69.098   33.637
H   14.621   69.176   36.442
H   14.611   70.504   35.493
H   12.457   69.865   34.679
H   12.465   68.6   35.712
H   11.111   70.273   36.644
H   12.455   70.148   37.564
H   13.318   72.119   36.615
H   12.026   72.229   35.622
H   11.74   72.21   38.452
H   11.921   73.61   37.63
H   10.621   72.661   37.351
N   17.212   68.331   34.97
C   18.631   68.509   34.75
C   19.048   67.963   33.415
O   19.808   68.635   32.664
C   19.456   67.803   35.834
C   19.561   68.471   37.148
C   20.173   67.46   38.119
C   20.467   69.717   36.997
H   16.8   67.696   35.661
H   18.838   69.499   34.775
H   19.042   66.895   35.968
H   20.381   67.681   35.46
H   18.665   68.728   37.483
H   21.075   67.188   37.788
H   20.259   67.879   39.022
H   19.581   66.657   38.177
H   20.058   70.333   36.329
H   20.54   70.17   37.881
H   21.367   69.424   36.686
N   18.544   66.776   33.087
C   18.876   66.138   31.8
C   18.345   64.721   31.704
C   19.066   63.734   32.633
O   20.031   64.05   33.38
O   18.597   62.597   32.648
H   17.919   66.35   33.787
H   19.885   66.1   31.738
H   17.38   64.726   31.95
H   18.458   64.402   30.768
H   18.5256   66.7168   30.916
H   -3.62483   67.2707   45.639
