362

C   13.438   73.835   45.097
O   12.551   73.517   45.878
N   13.713   73.177   43.985
C   12.925   71.942   43.632
C   13.171   70.857   44.643
O   12.218   70.163   45.079
C   13.216   71.427   42.274
C   12.381   72.056   41.177
O   11.483   72.883   41.481
O   12.674   71.741   39.99
H   14.463   73.541   43.401
H   11.961   72.21   43.686
H   14.184   71.596   42.059
H   13.052   70.436   42.256
N   14.437   70.672   45.027
C   14.731   69.666   46.046
C   13.978   69.958   47.36
O   13.343   69.078   47.982
C   16.251   69.511   46.311
C   16.491   68.563   47.471
C   16.932   68.949   45.097
H   15.134   71.26   44.572
H   14.416   68.772   45.708
H   16.598   70.403   46.581
H   17.413   68.703   47.834
H   15.821   68.739   48.193
H   16.399   67.617   47.157
H   16.607   69.422   44.274
H   17.925   69.072   45.176
H   16.728   67.97   45.015
N   14.01   71.228   47.761
C   13.313   71.646   48.948
C   11.824   71.596   48.807
O   11.134   71.429   49.839
C   13.771   73.057   49.436
C   14.98   72.83   50.301
C   16.29   72.706   49.894
C   14.986   72.717   51.743
N   17.142   72.546   51.055
C   16.346   72.561   52.166
C   13.992   72.812   52.716
C   16.694   72.452   53.503
C   14.365   72.72   54.075
C   15.68   72.511   54.432
H   14.566   71.859   47.155
H   13.576   71.01   49.701
H   14.041   73.571   48.672
H   13.077   73.431   49.983
H   16.629   72.719   48.977
H   18.115   72.447   51.008
H   13.037   72.943   52.479
H   17.654   72.334   53.775
H   13.653   72.81   54.761
H   15.91   72.397   55.408
N   11.286   71.819   47.597
C   9.868   71.683   47.38
C   9.491   70.221   47.68
O   8.483   69.939   48.358
C   9.487   72.11   45.936
C   8.092   71.783   45.478
C   7.066   72.456   46.352
C   7.979   72.195   43.991
H   11.969   72.088   46.868
H   9.376   72.262   48.02
H   9.61   73.101   45.887
H   10.134   71.66   45.322
H   7.956   70.787   45.511
H   7.187   73.451   46.317
H   6.143   72.228   46.033
H   7.17   72.147   47.301
H   8.652   71.683   43.463
H   7.06   71.986   43.668
H   8.155   73.173   43.914
N   10.283   69.29   47.185
C   10.017   67.865   47.433
C   10.054   67.615   48.956
O   9.157   66.982   49.524
C   11.044   66.997   46.754
C   10.907   65.516   46.987
S   12.245   64.569   46.152
C   13.502   64.826   47.363
H   11.081   69.628   46.626
H   9.099   67.657   47.113
H   11.009   67.166   45.748
H   11.975   67.283   47.06
H   10.925   65.325   47.988
H   10.0   65.199   46.648
H   14.41   64.652   46.967
H   13.475   65.774   47.699
H   13.368   64.205   48.143
N   11.044   68.118   49.659
C   11.057   67.921   51.127
C   9.86   68.581   51.793
O   9.212   67.992   52.66
C   12.304   68.497   51.784
C   13.659   67.971   51.305
C   13.846   66.67   50.868
C   14.785   68.82   51.4
C   15.134   66.256   50.449
C   16.049   68.379   51.014
C   16.206   67.097   50.574
H   11.765   68.627   49.15
H   10.974   66.929   51.28
H   12.307   69.488   51.634
H   12.252   68.313   52.768
H   13.104   66.027   50.841
H   14.664   69.746   51.748
H   15.233   65.33   50.061
H   16.832   69.018   51.068
H   17.132   66.757   50.334
N   9.625   69.857   51.488
C   8.521   70.561   52.137
C   7.194   69.892   51.903
O   6.371   69.831   52.83
C   8.503   72.039   51.726
C   9.573   72.829   52.479
H   10.252   70.275   50.797
H   8.704   70.535   53.134
H   8.691   72.1   50.759
H   7.618   72.417   51.949
O   9.767   72.578   53.67
N   10.161   73.797   51.885
H   9.903   74.029   50.925
H   10.873   74.344   52.33
N   6.957   69.342   50.714
C   5.723   68.629   50.484
C   5.583   67.409   51.4
O   4.497   67.168   51.909
C   5.591   68.086   49.059
C   5.462   69.187   48.02
H   7.7   69.469   50.014
H   4.961   69.252   50.716
H   6.403   67.547   48.851
H   4.778   67.512   49.015
O   5.069   70.31   48.268
N   5.769   68.819   46.833
H   6.063   67.894   46.588
H   5.719   69.498   46.058
N   6.68   66.705   51.657
C   6.607   65.51   52.469
C   6.384   65.86   53.979
O   5.578   65.203   54.714
C   7.899   64.708   52.258
H   7.548   67.075   51.241
H   5.828   64.946   52.174
H   8.617   65.322   51.938
H   8.171   64.292   53.123
H   7.736   63.997   51.578
N   7.043   66.939   54.451
C   6.842   67.42   55.838
C   5.485   68.047   56.045
O   4.955   68.004   57.121
C   7.893   68.41   56.248
C   9.311   67.85   56.423
C   9.667   66.712   57.049
C   10.491   68.498   56.063
N   11.009   66.596   57.06
C   11.536   67.726   56.485
C   10.774   69.744   55.443
C   12.89   68.111   56.293
C   12.141   70.12   55.192
C   13.159   69.29   55.617
H   7.682   67.387   53.78
H   6.912   66.611   56.442
H   7.971   69.134   55.559
H   7.653   68.821   57.13
H   9.025   66.049   57.448
H   11.542   65.833   57.418
H   10.049   70.365   55.176
H   13.625   67.524   56.65
H   12.307   70.962   54.723
H   14.111   69.539   55.436
N   4.863   68.549   54.994
C   3.477   69.019   55.067
C   2.456   67.917   55.064
O   1.532   67.925   55.828
C   3.241   69.92   53.857
C   1.81   70.369   53.681
C   1.302   71.169   54.863
C   1.64   71.151   52.357
H   5.427   68.584   54.121
H   3.376   69.559   55.927
H   3.803   70.729   53.969
H   3.505   69.414   53.047
H   1.221   69.557   53.554
H   1.866   71.987   54.985
H   0.353   71.444   54.702
H   1.347   70.611   55.693
H   1.892   70.557   51.598
H   0.688   71.433   52.27
H   2.234   71.951   52.377
N   2.594   66.962   54.17
C   1.546   65.97   53.936
C   1.457   64.878   55.006
O   0.37   64.416   55.392
C   1.706   65.353   52.52
C   0.543   64.439   52.299
C   -0.721   64.957   52.033
C   0.68   63.082   52.421
C   -1.827   64.137   51.936
C   -0.428   62.222   52.308
C   -1.663   62.756   52.059
O   -2.762   61.891   51.983
H   3.495   66.968   53.65
H   0.65   66.457   53.913
H   1.676   66.077   51.876
H   2.528   64.838   52.513
H   -0.829   65.948   51.91
H   1.579   62.676   52.593
H   -2.736   64.518   51.779
H   -0.299   61.24   52.411
H   -3.551   62.411   51.674
N   2.619   64.455   55.484
C   2.707   63.277   56.328
C   2.802   63.619   57.815
O   3.316   64.669   58.186
C   3.892   62.467   55.953
C   3.895   62.093   54.452
H   3.44   65.028   55.207
H   1.849   62.752   56.204
H   4.728   62.98   56.128
H   3.901   61.613   56.468
O   3.224   61.129   54.068
N   4.591   62.876   53.637
H   5.086   63.664   54.019
H   4.625   62.688   52.661
N   2.34   62.692   58.634
C   2.567   62.846   60.058
C   3.987   62.505   60.505
O   4.709   61.847   59.807
C   1.498   62.052   60.772
C   0.146   62.793   60.754
C   -0.901   62.192   61.664
N   -1.335   60.918   61.083
C   -2.284   60.755   60.138
N   -2.582   59.525   59.662
N   -2.934   61.779   59.641
H   1.843   61.912   58.203
H   2.376   63.815   60.318
H   1.369   61.192   60.311
H   1.756   61.933   61.714
H   0.3   63.748   61.031
H   -0.209   62.788   59.812
H   -0.496   62.027   62.543
H   -1.666   62.806   61.71
H   -0.882   60.072   61.42
H   -2.109   58.731   60.028
H   -3.272   59.43   58.952
H   -2.73   62.706   59.99
H   -3.621   61.659   58.931
N   4.364   62.962   61.687
C   5.742   62.793   62.187
C   6.146   61.37   62.467
O   7.312   61.056   62.416
C   5.9   63.56   63.502
C   5.956   65.047   63.263
C   6.397   65.812   64.514
C   5.485   65.642   65.694
N   4.213   66.041   65.107
H   3.624   63.445   62.233
H   6.378   63.191   61.489
H   5.12   63.357   64.073
H   6.744   63.271   63.927
H   6.608   65.244   62.527
H   5.049   65.378   62.994
H   7.32   65.495   64.764
H   6.451   66.79   64.28
H   5.461   64.712   65.951
H   5.742   66.258   66.392
H   4.355   66.396   64.177
H   3.59   65.254   65.06
H   3.784   66.759   65.664
N   5.194   60.489   62.656
C   5.488   59.048   62.8
C   5.697   58.303   61.469
O   6.004   57.105   61.45
C   4.291   58.361   63.513
O   3.04   58.765   62.902
C   4.276   58.807   64.969
H   4.229   60.868   62.697
H   6.34   58.955   63.35
H   4.381   57.351   63.404
H   3.51   59.435   65.124
H   4.174   58.009   65.567
H   5.134   59.275   65.189
H   3.204   59.507   62.248
N   5.389   58.928   60.355
C   5.436   58.183   59.112
C   6.881   57.98   58.654
O   7.752   58.866   58.811
C   4.615   58.809   58.059
O   5.306   59.894   57.597
H   5.133   59.911   60.436
H   5.036   57.273   59.271
H   4.471   58.162   57.321
H   3.748   59.101   58.444
H   5.229   60.668   58.238
N   7.152   56.814   58.062
C   8.447   56.634   57.459
C   8.796   57.714   56.448
O   9.906   58.145   56.381
C   8.588   55.282   56.682
C   8.5   54.07   57.568
C   8.521   52.765   56.756
N   7.251   52.693   56.094
C   6.909   51.755   55.216
N   5.717   51.785   54.648
N   7.745   50.778   54.914
H   6.405   56.122   58.081
H   9.157   56.641   58.19
H   7.855   55.252   56.015
H   9.472   55.294   56.234
H   9.276   54.045   58.195
H   7.647   54.085   58.087
H   9.245   52.834   56.108
H   8.624   52.029   57.387
H   6.558   53.402   56.303
H   5.063   52.511   54.845
H   5.457   51.057   53.996
H   8.656   50.76   55.341
H   7.483   50.065   54.27
N   7.838   58.077   55.605
C   8.082   59.098   54.646
C   8.57   60.409   55.274
O   9.511   60.998   54.751
C   6.883   59.331   53.716
C   7.13   60.499   52.78
C   6.583   58.06   52.98
H   6.945   57.566   55.715
H   8.81   58.786   54.006
H   6.099   59.573   54.286
H   6.26   60.939   52.554
H   7.731   61.165   53.224
H   7.563   60.171   51.94
H   7.136   58.011   52.144
H   6.796   57.27   53.561
H   5.611   58.031   52.731
N   7.953   60.856   56.336
C   8.407   62.059   57.066
C   9.846   61.887   57.609
O   10.703   62.743   57.419
C   7.415   62.36   58.148
C   7.571   63.668   58.864
C   8.555   63.859   59.783
C   6.664   64.663   58.639
C   8.656   65.047   60.485
C   6.736   65.867   59.289
C   7.714   66.065   60.209
O   7.63   67.272   60.888
H   7.118   60.308   56.636
H   8.411   62.832   56.424
H   6.484   62.337   57.747
H   7.461   61.622   58.842
H   9.228   63.132   59.966
H   5.918   64.511   57.974
H   9.36   65.195   61.16
H   6.071   66.591   59.085
H   7.142   67.928   60.319
N   10.128   60.753   58.256
H   9.376   60.063   58.302
H   14.0669   74.704   45.3245
H   11.0564   60.6177   58.6702
