273

C   -10.348   -0.705   -24.526
C   -11.658   -1.213   -23.938
O   -12.666   -0.507   -23.878
C   -9.483   -0.124   -23.384
C   -10.174   1.015   -22.627
C   -9.468   1.403   -21.319
N   -9.909   0.554   -20.216
C   -9.588   0.751   -18.942
N   -8.818   1.777   -18.598
N   -10.038   -0.08   -18.01
H   -9.842   -1.488   -24.913
H   -9.294   -0.851   -22.741
H   -8.65   0.231   -23.78
H   -10.206   1.829   -23.211
H   -11.111   0.74   -22.398
H   -8.493   1.291   -21.457
H   -9.694   2.348   -21.124
H   -10.497   -0.235   -20.436
H   -8.487   2.423   -19.279
H   -8.565   1.905   -17.631
H   -10.635   -0.842   -18.271
H   -9.786   0.052   -17.054
N   -11.623   -2.472   -23.535
C   -12.663   -3.089   -22.744
C   -12.587   -2.592   -21.303
O   -11.519   -2.182   -20.848
C   -12.486   -4.602   -22.806
C   -13.678   -5.358   -22.272
O   -14.581   -5.679   -23.074
O   -13.701   -5.642   -21.062
H   -10.759   -2.993   -23.845
H   -13.547   -2.783   -23.11
H   -12.344   -4.856   -23.759
H   -11.685   -4.841   -22.266
N   -13.711   -2.639   -20.566
C   -13.617   -2.367   -19.131
C   -12.596   -3.231   -18.392
O   -12.149   -2.803   -17.327
C   -15.039   -2.656   -18.616
C   -15.835   -3.131   -19.817
C   -15.11   -2.676   -21.025
H   -13.426   -1.376   -18.969
H   -15.021   -3.367   -17.904
H   -15.452   -1.826   -18.228
H   -15.919   -4.139   -19.788
H   -16.77   -2.746   -19.774
H   -15.207   -3.317   -21.787
H   -15.402   -1.765   -21.32
N   -12.231   -4.401   -18.912
C   -11.257   -5.223   -18.18
C   -9.836   -4.722   -18.403
O   -8.917   -5.148   -17.704
C   -11.37   -6.733   -18.524
C   -11.005   -7.072   -19.981
O   -10.505   -6.21   -20.721
O   -11.214   -8.245   -20.387
H   -12.655   -4.658   -19.797
H   -11.46   -5.116   -17.2
H   -10.753   -7.227   -17.922
H   -12.31   -7.011   -18.362
N   -9.65   -3.812   -19.36
C   -8.341   -3.199   -19.555
C   -7.578   -3.652   -20.791
O   -6.576   -3.041   -21.156
H   -10.482   -3.591   -19.926
H   -8.454   -2.178   -19.59
H   -7.763   -3.377   -18.724
N   -8.037   -4.74   -21.409
C   -7.508   -5.222   -22.694
C   -8.161   -4.497   -23.851
O   -9.294   -4.077   -23.722
C   -7.782   -6.719   -22.875
C   -6.91   -7.611   -22.042
C   -5.588   -7.825   -22.398
C   -7.422   -8.26   -20.929
C   -4.779   -8.645   -21.636
C   -6.616   -9.097   -20.162
C   -5.298   -9.288   -20.523
H   -8.812   -5.228   -20.901
H   -6.531   -4.986   -22.708
H   -8.725   -6.885   -22.621
H   -7.627   -6.94   -23.828
H   -5.215   -7.384   -23.21
H   -8.379   -8.127   -20.672
H   -3.813   -8.774   -21.894
H   -7.004   -9.557   -19.351
H   -4.708   -9.893   -19.982
N   -7.465   -4.39   -24.99
C   -8.129   -4.088   -26.256
C   -8.298   -5.413   -27.005
O   -7.336   -6.157   -27.16
C   -7.339   -3.104   -27.15
C   -8.097   -2.845   -28.448
C   -7.053   -1.786   -26.441
H   -6.447   -4.536   -24.893
H   -9.033   -3.731   -26.059
H   -6.482   -3.542   -27.396
H   -9.071   -3.018   -28.304
H   -7.964   -1.894   -28.726
H   -7.751   -3.453   -29.162
H   -6.702   -1.125   -27.104
H   -7.899   -1.44   -26.036
H   -6.373   -1.939   -25.724
N   -9.513   -5.707   -27.463
C   -9.797   -6.969   -28.148
C   -9.782   -6.824   -29.655
O   -10.525   -6.016   -30.207
C   -11.158   -7.518   -27.707
C   -11.058   -8.076   -26.326
C   -11.157   -7.251   -25.217
C   -10.768   -9.412   -26.135
C   -11.005   -7.765   -23.938
C   -10.609   -9.93   -24.872
C   -10.733   -9.1   -23.78
O   -10.587   -9.632   -22.518
H   -10.231   -4.975   -27.295
H   -9.08   -7.635   -27.884
H   -11.802   -6.777   -27.709
H   -11.413   -8.237   -28.326
H   -11.339   -6.275   -25.336
H   -10.673   -10.014   -26.931
H   -11.095   -7.164   -23.142
H   -10.404   -10.902   -24.744
H   -10.844   -8.944   -21.842
N   -8.96   -7.635   -30.32
C   -8.894   -7.625   -31.777
C   -9.113   -9.026   -32.339
O   -8.798   -10.012   -31.688
C   -7.538   -7.093   -32.262
C   -7.226   -5.701   -31.736
S   -5.704   -5.065   -32.411
C   -5.602   -3.504   -31.523
H   -8.386   -8.258   -29.723
H   -9.631   -7.034   -32.121
H   -6.816   -7.72   -31.958
H   -7.542   -7.063   -33.265
H   -8.016   -5.089   -31.96
H   -7.189   -5.744   -30.714
H   -6.436   -3.372   -30.987
H   -4.811   -3.521   -30.912
H   -5.503   -2.755   -32.178
N   -9.657   -9.101   -33.553
C   -9.832   -10.383   -34.221
C   -9.371   -10.232   -35.651
O   -9.581   -9.177   -36.262
C   -11.3   -10.865   -34.203
C   -11.648   -11.445   -32.844
C   -12.252   -9.72   -34.587
H   -9.935   -8.194   -33.964
H   -9.245   -11.052   -33.77
H   -11.382   -11.601   -34.867
H   -11.317   -10.835   -32.123
H   -12.641   -11.543   -32.765
H   -11.218   -12.342   -32.741
H   -12.791   -9.467   -33.787
H   -11.711   -8.941   -34.896
H   -12.852   -10.032   -35.32
N   -8.763   -11.271   -36.206
C   -8.328   -11.167   -37.596
C   -9.106   -12.112   -38.508
O   -9.592   -13.159   -38.094
C   -6.807   -11.408   -37.735
C   -6.27   -12.728   -37.221
C   -6.218   -13.856   -38.042
C   -5.765   -12.839   -35.932
C   -5.706   -15.081   -37.571
C   -5.246   -14.051   -35.462
C   -5.213   -15.164   -36.29
O   -4.703   -16.357   -35.814
H   -8.635   -12.091   -35.618
H   -8.495   -10.221   -37.91
H   -6.574   -11.334   -38.714
H   -6.334   -10.665   -37.243
H   -6.549   -13.803   -38.983
H   -5.768   -12.046   -35.328
H   -5.706   -15.877   -38.176
H   -4.899   -14.111   -34.525
H   -4.647   -17.009   -36.566
N   -9.225   -11.705   -39.76
C   -10.089   -12.385   -40.714
C   -9.523   -12.19   -42.111
O   -8.795   -11.232   -42.35
C   -11.544   -11.847   -40.641
O   -12.38   -12.541   -41.584
C   -11.592   -10.363   -40.932
H   -8.655   -10.867   -40.003
H   -10.09   -13.362   -40.506
H   -11.908   -12.022   -39.703
H   -10.663   -10.009   -41.071
H   -12.132   -10.192   -41.761
H   -12.014   -9.875   -40.163
H   -12.359   -13.529   -41.404
N   -9.834   -13.114   -43.015
C   -9.477   -12.955   -44.423
C   -10.625   -12.364   -45.246
O   -10.472   -12.132   -46.439
C   -9.056   -14.305   -45.018
O   -10.108   -15.252   -44.915
H   -10.34   -13.938   -42.643
H   -8.698   -12.314   -44.478
H   -8.829   -14.175   -45.977
H   -8.266   -14.642   -44.517
H   -9.936   -15.857   -44.139
N   -11.768   -12.113   -44.614
C   -12.971   -11.673   -45.343
C   -13.155   -10.161   -45.312
O   -13.34   -9.585   -44.239
C   -14.228   -12.335   -44.76
C   -14.12   -13.835   -44.587
C   -13.866   -14.553   -45.899
H   -11.745   -12.249   -43.589
H   -12.861   -11.954   -46.309
H   -14.414   -11.926   -43.863
H   -15.001   -12.142   -45.372
H   -13.364   -14.036   -43.965
H   -14.974   -14.178   -44.197
O   -14.318   -14.116   -46.959
N   -13.129   -15.656   -45.835
H   -12.928   -16.199   -46.672
H   -12.765   -15.952   -44.931
N   -13.099   -9.506   -46.488
C   -13.363   -8.064   -46.576
C   -14.802   -7.739   -46.179
O   -15.629   -8.651   -46.138
C   -13.14   -7.744   -48.062
C   -12.511   -8.931   -48.645
C   -12.912   -10.106   -47.815
H   -12.711   -7.548   -46.008
H   -14.026   -7.534   -48.506
H   -12.552   -6.925   -48.155
H   -12.805   -9.061   -49.612
H   -11.497   -8.834   -48.66
H   -13.764   -10.514   -48.139
H   -12.195   -10.802   -47.788
N   -15.103   -6.465   -45.933
C   -16.438   -6.068   -45.487
C   -17.573   -6.566   -46.38
O   -18.66   -6.869   -45.893
C   -16.512   -4.537   -45.357
H   -14.327   -5.795   -46.082
H   -16.586   -6.435   -44.546
H   -15.716   -4.214   -44.85
H   -16.52   -4.132   -46.268
H   -17.346   -4.291   -44.87
N   -17.333   -6.659   -47.685
C   -18.376   -7.096   -48.608
C   -17.871   -8.255   -49.456
O   -18.313   -8.457   -50.592
C   -18.836   -5.915   -49.463
C   -19.239   -4.731   -48.628
C   -20.38   -4.791   -47.843
C   -18.44   -3.603   -48.558
C   -20.743   -3.721   -47.021
C   -18.806   -2.519   -47.754
C   -19.951   -2.588   -46.984
H   -16.377   -6.403   -47.977
H   -19.131   -7.451   -48.051
H   -18.085   -5.644   -50.035
H   -19.618   -6.203   -49.982
H   -20.955   -5.605   -47.858
H   -17.592   -3.557   -49.084
H   -21.577   -3.787   -46.466
H   -18.225   -1.69   -47.746
H   -20.211   -1.819   -46.396
N   -16.912   -8.99   -48.888
C   -16.434   -10.24   -49.459
C   -15.742   -10.132   -50.807
O   -15.184   -9.09   -51.145
O   -15.727   -11.085   -51.586
H   -16.537   -8.587   -47.998
H   -15.792   -10.687   -48.791
H   -17.226   -10.892   -49.543
H   -10.5169   0.00687755   -25.2997
