194

C   7.349   10.61   -1.472
C   7.917   9.455   -2.301
O   7.2   8.881   -3.122
C   7.566   11.931   -2.229
C   6.65   13.066   -1.798
C   6.556   14.121   -2.883
N   5.979   15.373   -2.39
C   6.692   16.431   -2.015
N   6.084   17.528   -1.584
N   8.018   16.402   -2.07
H   6.363   10.468   -1.357
H   8.509   12.219   -2.081
H   7.412   11.759   -3.199
H   5.738   12.71   -1.628
H   7.015   13.493   -0.978
H   7.475   14.298   -3.227
H   5.982   13.763   -3.617
H   4.976   15.436   -2.331
H   5.091   17.573   -1.514
H   6.634   18.33   -1.321
H   8.478   15.564   -2.38
H   8.552   17.199   -1.807
N   9.198   9.103   -2.062
C   9.89   8.009   -2.749
C   9.471   6.612   -2.249
O   9.83   5.613   -2.87
C   11.422   8.194   -2.695
C   11.945   9.521   -3.282
C   11.622   9.745   -4.774
C   12.506   8.979   -5.733
N   12.087   9.193   -7.144
H   9.661   9.695   -1.327
H   9.685   8.065   -3.741
H   11.707   8.148   -1.738
H   11.843   7.444   -3.205
H   11.548   10.285   -2.753
H   12.948   9.552   -3.165
H   10.664   9.475   -4.927
H   11.709   10.729   -4.966
H   13.454   9.286   -5.622
H   12.452   8.001   -5.52
H   12.483   8.478   -7.72
H   11.09   9.156   -7.203
H   12.408   10.088   -7.454
N   8.687   6.539   -1.159
C   8.2   5.272   -0.607
C   6.648   5.28   -0.588
O   6.059   5.43   0.485
C   8.831   5.022   0.787
C   8.299   3.827   1.565
O   8.035   2.77   0.939
O   8.125   3.956   2.793
H   8.456   7.469   -0.741
H   8.472   4.545   -1.235
H   9.821   4.902   0.649
H   8.685   5.853   1.334
N   5.963   5.158   -1.764
C   4.487   5.231   -1.763
C   3.761   4.065   -1.096
O   2.635   4.249   -0.63
C   4.135   5.342   -3.248
C   5.258   4.682   -3.946
C   6.483   4.998   -3.139
H   4.184   6.123   -1.351
H   3.263   4.879   -3.437
H   4.051   6.306   -3.518
H   5.113   3.685   -3.998
H   5.351   5.033   -4.887
H   7.15   4.253   -3.173
H   6.92   5.846   -3.447
N   4.392   2.878   -1.048
C   3.791   1.69   -0.436
C   3.967   1.636   1.087
O   3.4   0.755   1.741
C   4.289   0.399   -1.104
C   4.109   0.373   -2.59
H   5.338   2.881   -1.482
H   2.796   1.699   -0.636
H   5.268   0.286   -0.9
H   3.79   -0.382   -0.71
N   2.852   0.272   -3.165
C   5.037   0.431   -3.573
C   3.054   0.281   -4.473
N   4.353   0.37   -4.767
H   1.999   0.209   -2.696
H   6.021   0.503   -3.46
H   2.32   0.226   -5.169
N   4.731   2.583   1.629
C   4.972   2.705   3.06
C   5.824   1.608   3.655
O   5.638   1.251   4.823
H   5.15   3.243   0.924
H   5.412   3.612   3.246
H   4.071   2.733   3.547
N   6.785   1.079   2.867
C   7.705   0.038   3.326
C   8.621   0.551   4.433
O   9.004   -0.219   5.301
C   8.546   -0.514   2.166
C   7.776   -1.181   1.047
C   6.778   -2.112   1.323
C   8.095   -0.931   -0.282
C   6.086   -2.747   0.288
C   7.404   -1.573   -1.318
C   6.407   -2.475   -1.024
H   6.809   1.481   1.905
H   7.142   -0.693   3.73
H   9.054   0.247   1.772
H   9.176   -1.188   2.543
H   6.549   -2.331   2.265
H   8.824   -0.287   -0.507
H   5.356   -3.402   0.517
H   7.651   -1.363   -2.277
H   5.91   -2.938   -1.764
N   8.944   1.854   4.415
C   9.822   2.497   5.397
C   9.043   3.405   6.362
O   9.657   4.099   7.169
C   10.939   3.274   4.672
C   11.867   2.389   3.88
C   12.944   1.76   4.494
C   11.666   2.18   2.52
C   13.805   0.939   3.761
C   12.519   1.344   1.791
C   13.58   0.727   2.419
H   8.503   2.383   3.619
H   10.225   1.762   5.957
H   10.508   3.903   4.048
H   11.471   3.741   5.358
H   13.109   1.89   5.466
H   10.905   2.629   2.055
H   14.588   0.51   4.229
H   12.346   1.203   0.803
H   14.19   0.122   1.9
N   7.691   3.378   6.292
C   6.808   4.213   7.12
C   6.8   3.877   8.62
O   6.607   4.781   9.435
C   5.389   4.18   6.572
H   7.326   2.697   5.582
H   7.098   5.189   7.014
H   4.739   4.329   7.317
H   5.279   4.899   5.886
H   5.213   3.29   6.152
N   6.978   2.593   8.982
C   6.946   2.135   10.376
C   8.011   1.039   10.667
O   8.603   0.535   9.707
C   5.513   1.704   10.776
C   4.903   0.567   9.987
C   4.206   0.812   8.806
C   4.964   -0.742   10.459
C   3.629   -0.241   8.083
C   4.383   -1.792   9.737
C   3.723   -1.534   8.554
H   7.142   1.946   8.175
H   7.192   2.923   10.954
H   5.543   1.43   11.735
H   4.923   2.502   10.669
H   4.113   1.74   8.465
H   5.427   -0.938   11.321
H   3.148   -0.036   7.223
H   4.455   -2.736   10.097
H   3.31   -2.285   8.032
N   8.32   0.693   11.955
C   9.362   -0.323   12.217
C   9.086   -1.7   11.618
O   7.941   -2.159   11.627
C   9.405   -0.403   13.752
C   8.817   0.872   14.226
C   7.763   1.212   13.225
H   10.273   0.026   11.908
H   8.872   -1.194   14.074
H   10.354   -0.509   14.069
H   8.42   0.761   15.145
H   9.519   1.592   14.269
H   6.894   0.761   13.43
H   7.615   2.2   13.159
N   10.146   -2.363   11.104
C   10.033   -3.709   10.532
C   11.168   -4.056   9.514
C   10.922   -5.414   8.863
C   11.319   -2.982   8.442
H   11.04   -1.834   11.152
H   9.172   -3.769   10.042
H   12.014   -4.125   10.031
H   10.037   -5.77   9.161
H   10.923   -5.311   7.869
H   11.645   -6.048   9.134
H   11.831   -3.358   7.671
H   10.412   -2.693   8.137
H   11.811   -2.201   8.826
H   7.80757   10.634   -0.505361
H   9.99853   -4.42928   11.3672
