271
1.xyz
C              -0.844              5.811               -2.751              
O              -1.235              6.982               -2.748              
N              0.44                5.519               -2.641              
C              1.446               6.556               -2.636              
C              2.01                6.891               -4.014              
O              2.955               7.672               -4.096              
C              2.559               6.167               -1.68               
C              2.068               5.916               -0.26               
C              3.172               5.51                0.719               
N              4.278               6.461               0.781               
C              5.382               6.424               0.031               
N              5.543               5.488               -0.88               
N              6.321               7.351               0.183               
H              0.654               4.506               -2.561              
H              1.04                7.408               -2.244              
H              2.982               5.331               -2.009              
H              3.222               6.905               -1.647              
H              1.635               6.751               0.096               
H              1.382               5.18                -0.27               
H              2.757               5.424               1.627               
H              3.52                4.615               0.431               
H              4.204               7.22                1.454               
H              4.838               4.799               -1.045              
H              6.39                5.459               -1.427              
H              6.184               8.087               0.85                
H              7.155               7.317               -0.361              
N              1.478               6.267               -5.079              
C              2.008               6.442               -6.44               
C              3.295               5.634               -6.735              
O              4.034               5.918               -7.671              
H              0.667               5.656               -4.858              
H              1.295               6.173               -7.114              
H              2.201               7.428               -6.599              
N              3.589               4.626               -5.917              
C              4.715               3.77                -6.215              
C              4.363               2.667               -7.195              
O              3.381               1.924               -7.008              
C              5.337               3.232               -4.923              
C              6.646               2.505               -5.137              
C              7.458               2.372               -3.858              
N              6.81                1.447               -2.942              
C              6.875               0.125               -3.038              
N              7.616               -0.472              -3.992              
N              6.179               -0.612              -2.171              
H              2.974               4.523               -5.102              
H              5.459               4.333               -6.618              
H              5.502               4.002               -4.316              
H              4.691               2.599               -4.51               
H              6.466               1.583               -5.485              
H              7.203               3.005               -5.804              
H              8.356               2.029               -4.098              
H              7.519               3.268               -3.439              
H              6.273               1.836               -2.18               
H              8.141               0.089               -4.626              
H              7.632               -1.465              -4.053              
H              5.639               -0.176              -1.455              
H              6.201               -1.612              -2.241              
N              5.199               2.525               -8.222              
C              4.952               1.501               -9.243              
C              5.687               0.255               -8.794              
O              6.938               0.194               -8.861              
C              5.436               1.961               -10.601             
C              5.156               0.99                -11.749             
C              5.028               1.729               -13.095             
N              3.824               2.537               -13.025             
C              3.092               2.989               -14.047             
N              3.427               2.729               -15.311             
N              1.967               3.668               -13.779             
H              5.999               3.169               -8.237              
H              3.98                1.312               -9.277              
H              4.989               2.828               -10.825             
H              6.426               2.099               -10.559             
H              5.905               0.342               -11.828             
H              4.3                 0.515               -11.582             
H              5.813               2.3                 -13.196             
H              4.943               1.055               -13.796             
H              3.491               2.795               -12.086             
H              4.23                2.168               -15.507             
H              2.874               3.094               -16.058             
H              1.681               3.81                -12.836             
H              1.418               4.029               -14.532             
N              4.941               -0.756              -8.323              
C              5.546               -1.927              -7.709              
C              6.408               -2.773              -8.641              
O              7.344               -3.408              -8.151              
C              4.48                -2.86               -7.1                
C              4.142               -2.528              -5.64               
C              3.901               -1.104              -5.355              
C              3.018               -3.452              -5.166              
H              3.919               -0.624              -8.436              
H              6.134               -1.615              -6.931              
H              3.656               -2.76               -7.627              
H              4.832               -3.776              -7.124              
H              4.909               -2.881              -5.058              
H              3.126               -0.755              -5.899              
H              3.686               -0.964              -4.379              
H              4.714               -0.55               -5.578              
H              3.32                -4.402              -5.236              
H              2.794               -3.24               -4.215              
H              2.212               -3.313              -5.74               
N              6.124               -2.709              -9.938              
C              6.854               -3.495              -10.923             
C              8.238               -2.998              -11.213             
O              9.022               -3.751              -11.797             
C              6.143               -3.502              -12.238             
O              6.142               -2.228              -12.875             
H              5.349               -2.06               -10.182             
H              6.926               -4.45               -10.561             
H              6.584               -4.16               -12.858             
H              5.186               -3.783              -12.103             
H              5.234               -2.046              -13.246             
N              8.568               -1.797              -10.753             
C              9.849               -1.143              -11.159             
C              11.071              -2.058              -11.061             
O              11.819              -2.189              -12.045             
C              10.12               0.134               -10.328             
H              7.896               -1.358              -10.112             
H              9.747               -0.835              -12.121             
H              9.385               0.785               -10.491             
H              10.153              -0.111              -9.364              
H              10.991              0.523               -10.612             
N              11.245              -2.632              -9.892              
C              12.499              -3.466              -9.65               
C              12.432              -4.8                -10.386             
O              13.495              -5.443              -10.588             
C              12.81               -3.666              -8.193              
C              11.787              -4.564              -7.533              
C              12.918              -2.287              -7.519              
C              12.267              -5.975              -7.377              
H              10.534              -2.5                -9.184              
H              13.24               -2.932              -10.058             
H              13.705              -4.111              -8.116              
H              11.567              -4.192              -6.634              
H              10.959              -4.564              -8.092              
H              13.185              -2.41               -6.568              
H              13.604              -1.745              -7.996              
H              12.034              -1.832              -7.566              
H              13.094              -5.991              -6.812              
H              11.557              -6.527              -6.937              
H              12.476              -6.363              -8.276              
N              11.243              -5.215              -10.831             
C              11.056              -6.496              -11.498             
C              11.298              -6.49               -13.007             
O              11.269              -7.557              -13.643             
C              9.594               -6.977              -11.235             
C              9.342               -7.346              -9.793              
C              9.756               -8.581              -9.271              
C              8.767               -6.447              -8.908              
C              9.592               -8.887              -7.926              
C              8.547               -6.783              -7.577              
C              8.946               -7.99               -7.076              
H              10.463              -4.541              -10.658             
H              11.742              -7.141              -11.098             
H              8.997               -6.235              -11.475             
H              9.447               -7.773              -11.79              
H              10.177              -9.25               -9.878              
H              8.504               -5.534              -9.233              
H              9.941               -9.762              -7.568              
H              8.074               -6.103              -6.974              
H              8.787               -8.239              -6.127              
N              11.48               -5.331              -13.634             
C              11.65               -5.238              -15.065             
C              12.845              -6.034              -15.579             
O              12.735              -6.786              -16.539             
C              11.696              -3.8                -15.51              
C              10.448              -2.94               -15.125             
C              10.598              -1.524              -15.674             
C              9.084               -3.546              -15.436             
H              11.488              -4.499              -12.997             
H              10.814              -5.599              -15.518             
H              12.477              -3.355              -15.091             
H              11.76               -3.767              -16.499             
H              10.383              -2.913              -14.134             
H              10.678              -1.56               -16.67              
H              9.796               -0.983              -15.422             
H              11.419              -1.103              -15.288             
H              8.983               -4.411              -14.943             
H              8.365               -2.913              -15.149             
H              9.009               -3.712              -16.42              
N              13.977              -5.846              -14.935             
C              15.22               -6.465              -15.356             
C              16.096              -6.918              -14.153             
O              16.473              -6.146              -13.302             
C              16.025              -5.495              -16.238             
C              17.212              -6.186              -16.917             
C              16.723              -7.042              -18.079             
N              17.875              -7.626              -18.725             
C              18.364              -8.851              -18.568             
N              17.776              -9.777              -17.79              
N              19.479              -9.157              -19.265             
H              13.907              -5.218              -14.101             
H              15.016              -7.285              -15.911             
H              15.429              -5.148              -16.942             
H              16.377              -4.775              -15.666             
H              17.831              -5.501              -17.272             
H              17.664              -6.776              -16.265             
H              16.146              -7.749              -17.714             
H              16.245              -6.455              -18.706             
H              18.387              -7.023              -19.393             
H              16.922              -9.533              -17.326             
H              18.182              -10.671             -17.686             
H              19.896              -8.503              -19.878             
H              19.884              -10.071             -19.152             
N              16.342              -8.21               -14.095             
C              17.291              -8.792              -13.136             
C              18.692              -8.175              -13.298             
O              19.128              -8.009              -14.436             
C              17.445              -10.293             -13.367             
C              16.49               -11.181             -12.61              
C              16.5                -12.582             -13.226             
C              16.777              -11.233             -11.066             
H              15.812              -8.791              -14.782             
H              16.967              -8.595              -12.206             
H              17.313              -10.463             -14.342             
H              18.373              -10.545             -13.103             
H              15.567              -10.81              -12.668             
H              17.423              -12.96              -13.171             
H              15.867              -13.168             -12.723             
H              16.217              -12.524             -14.182             
H              16.696              -10.312             -10.705             
H              16.108              -11.835             -10.647             
H              17.697              -11.583             -10.933             
N              19.345              -7.857              -12.163             
C              20.782              -7.555              -12.191             
C              21.618              -8.74               -12.657             
O              21.097              -9.87               -12.837             
C              21.094              -7.213              -10.743             
C              19.729              -6.788              -10.143             
C              18.853              -7.853              -10.756             
H              20.961              -6.741              -12.768             
H              21.443              -8.002              -10.243             
H              21.737              -6.455              -10.671             
H              19.765              -6.86               -9.172              
H              19.498              -5.897              -10.463             
H              19.003              -8.736              -10.338             
H              17.896              -7.602              -10.727             
N              22.896              -8.439              -12.927             
C              23.798              -9.497              -13.457             
C              24.169              -10.5               -12.359             
O              23.915              -10.265             -11.188             
C              25.059              -8.86               -14.048             
O              25.99               -8.516              -13.018             
H              23.183              -7.482              -12.75              
H              23.298              -9.989              -14.173             
H              25.491              -9.509              -14.664             
H              24.804              -8.033              -14.536             
H              25.567              -8.674              -12.129             
N              24.884              -11.578             -12.738             
C              25.341              -12.544             -11.765             
C              25.971              -13.746             -12.462             
C              25.006              -14.555             -13.232             
C              25.676              -15.784             -13.826             
N              24.599              -16.365             -14.596             
C              23.788              -17.332             -14.191             
N              23.914              -17.931             -13.009             
N              22.854              -17.725             -15.021             
H              25.062              -11.637             -13.753             
H              24.532              -12.905             -11.258             
H              26.677              -13.402             -13.079             
H              26.391              -14.318             -11.759             
H              24.263              -14.873             -12.643             
H              24.627              -14.025             -13.99              
H              26.381              -15.492             -14.407             
H              25.924              -16.368             -13.106             
H              24.445              -16.001             -15.538             
H              24.641              -17.627             -12.387             
H              23.298              -18.664             -12.748             
H              22.728              -17.311             -15.921             
H              22.227              -18.478             -14.75              
H              26.0448             -12.1361            -11.0454            
H              -1.54966            5.00343             -2.82499            
