371
0.xyz
N              -5.072              -2.618              -30.261             
C              -4.029              -2.787              -31.285             
C              -4.228              -4.045              -32.233             
O              -4.213              -3.859              -33.459             
C              -2.659              -2.733              -30.611             
C              -2.415              -4.012              -29.871             
C              -1.824              -5.079              -30.54              
C              -2.863              -4.21               -28.56              
C              -1.648              -6.278              -29.935             
C              -2.667              -5.413              -27.946             
C              -2.058              -6.425              -28.657             
O              -1.823              -7.636              -28.157             
H              -5.203              -3.479              -29.769             
H              -4.028              -1.97               -31.887             
H              -1.976              -2.632              -31.307             
H              -2.659              -1.991              -29.97              
H              -1.526              -4.945              -31.494             
H              -3.321              -3.466              -28.088             
H              -1.219              -7.043              -30.428             
H              -2.956              -5.565              -27.003             
H              -4.797              -1.907              -29.614             
H              -5.932              -2.353              -30.697             
H              -2.685              -8.072              -27.876             
N              -4.455              -5.28               -31.734             
C              -4.693              -6.451              -32.649             
C              -5.549              -7.687              -32.257             
O              -6.708              -7.489              -31.925             
C              -3.418              -6.848              -33.361             
C              -3.543              -6.699              -34.866             
S              -2.983              -8.186              -35.708             
C              -1.29               -8.417              -35.121             
H              -4.453              -5.356              -30.716             
H              -5.114              -6.054              -33.529             
H              -2.666              -6.267              -33.047             
H              -3.205              -7.805              -33.155             
H              -4.515              -6.497              -35.095             
H              -3.001              -5.889              -35.161             
H              -1.241              -8.17               -34.155             
H              -1.03               -9.374              -35.239             
H              -0.677              -7.833              -35.65              
N              -5.057              -8.932              -32.364             
C              -5.935              -10.109             -32.17              
C              -6.402              -10.266             -30.73              
O              -5.66               -9.833              -29.828             
C              -5.276              -11.449             -32.467             
O              -4.27               -11.688             -31.496             
C              -4.711              -11.491             -33.868             
H              -4.058              -8.996              -32.583             
H              -6.748              -9.989              -32.762             
H              -5.976              -12.188             -32.393             
H              -3.784              -11.104             -33.878             
H              -4.67               -12.44              -34.195             
H              -5.292              -10.958             -34.491             
H              -3.458              -11.117             -31.675             
N              -7.584              -10.934             -30.513             
C              -8.118              -11.135             -29.166             
C              -7.075              -11.668             -28.176             
O              -6.915              -11.093             -27.105             
C              -9.242              -12.149             -29.367             
C              -9.732              -11.906             -30.756             
C              -8.6                -11.298             -31.548             
H              -8.532              -10.277             -28.813             
H              -8.896              -13.087             -29.268             
H              -9.976              -12.004             -28.697             
H              -10.037             -12.776             -31.181             
H              -10.533             -11.283             -30.744             
H              -8.209              -11.953             -32.195             
H              -8.893              -10.478             -32.042             
N              -6.37               -12.73              -28.549             
C              -5.451              -13.345             -27.571             
C              -4.187              -12.512             -27.384             
O              -3.695              -12.419             -26.278             
C              -5.117              -14.792             -27.854             
C              -4.444              -15.461             -26.629             
S              -3.582              -16.936             -27.15              
C              -5.035              -18.01              -27.261             
H              -6.505              -13.062             -29.497             
H              -5.931              -13.391             -26.686             
H              -5.948              -15.302             -28.057             
H              -4.481              -14.853             -28.618             
H              -3.816              -14.788             -26.214             
H              -5.165              -15.669             -25.953             
H              -4.877              -18.83              -26.715             
H              -5.831              -17.519             -26.913             
H              -5.183              -18.262             -28.215             
N              -3.716              -11.838             -28.419             
C              -2.621              -10.922             -28.245             
C              -3.052              -9.81               -27.311             
O              -2.249              -9.344              -26.493             
C              -2.167              -10.326             -29.581             
C              -1.591              -11.357             -30.522             
C              -1.338              -10.811             -31.941             
H              -4.187              -12.023             -29.319             
H              -1.863              -11.411             -27.809             
H              -2.954              -9.899              -30.022             
H              -1.467              -9.636              -29.4               
H              -0.716              -11.683             -30.161             
H              -2.226              -12.127             -30.599             
O              -1.992              -9.853              -32.428             
N              -0.371              -11.42              -32.608             
H              -0.149              -11.126             -33.564             
H              0.144               -12.172             -32.168             
N              -4.307              -9.36               -27.451             
C              -4.82               -8.297              -26.597             
C              -4.882              -8.741              -25.13              
O              -4.568              -7.942              -24.222             
C              -6.221              -7.832              -27.038             
C              -6.615              -6.54               -26.353             
C              -8.005              -6.099              -26.745             
H              -4.854              -9.822              -28.194             
H              -4.185              -7.517              -26.65              
H              -6.209              -7.681              -28.016             
H              -6.877              -8.533              -26.794             
H              -6.59               -6.679              -25.366             
H              -5.967              -5.827              -26.613             
O              -8.34               -6.079              -27.925             
N              -8.832              -5.805              -25.756             
H              -9.784              -5.486              -25.941             
H              -8.507              -5.901              -24.794             
N              -5.357              -9.972              -24.914             
C              -5.437              -10.521             -23.565             
C              -4.023              -10.598             -22.963             
O              -3.833              -10.262             -21.825             
C              -6.048              -11.888             -23.574             
C              -7.528              -11.751             -23.872             
C              -8.252              -13.075             -23.723             
C              -9.735              -12.876             -24.028             
N              -9.98               -12.38              -25.421             
H              -5.652              -10.481             -25.763             
H              -5.99               -9.915              -22.994             
H              -5.639              -12.422             -24.286             
H              -5.948              -12.294             -22.688             
H              -7.93               -11.089             -23.237             
H              -7.645              -11.421             -24.81              
H              -7.884              -13.721             -24.369             
H              -8.164              -13.392             -22.794             
H              -10.212             -13.753             -23.906             
H              -10.115             -12.212             -23.374             
H              -10.952             -12.461             -25.63              
H              -9.699              -11.425             -25.481             
H              -9.449              -12.931             -26.062             
N              -3.063              -11.031             -23.755             
C              -1.677              -11.108             -23.248             
C              -1.199              -9.756              -22.825             
O              -0.588              -9.603              -21.728             
C              -0.765              -11.706             -24.306             
C              -0.914              -13.198             -24.538             
C              -0.337              -13.535             -25.927             
C              -0.279              -14.075             -23.491             
H              -3.335              -11.298             -24.703             
H              -1.676              -11.727             -22.455             
H              -0.956              -11.248             -25.171             
H              0.177               -11.537             -24.031             
H              -1.872              -13.445             -24.521             
H              0.626               -13.277             -25.95              
H              -0.431              -14.514             -26.088             
H              -0.842              -13.026             -26.62              
H              -0.687              -13.888             -22.594             
H              -0.424              -15.041             -23.72              
H              0.707               -13.894             -23.445             
N              -1.437              -8.766              -23.683             
C              -1.023              -7.406              -23.382             
C              -1.673              -6.834              -22.171             
O              -1.03               -6.117              -21.417             
C              -1.294              -6.458              -24.528             
C              -0.39               -5.272              -24.502             
H              -1.925              -9.044              -24.55              
H              -0.017              -7.439              -23.207             
H              -1.159              -6.951              -25.386             
H              -2.241              -6.147              -24.464             
O              0.815               -5.418              -24.644             
N              -0.93               -4.114              -24.259             
H              -1.922              -4.039              -24.091             
H              -0.372              -3.278              -24.234             
N              -2.991              -7.073              -22.019             
C              -3.69               -6.637              -20.839             
C              -3.128              -7.196              -19.485             
O              -3.05               -6.47               -18.512             
C              -5.182              -6.95               -20.989             
C              -5.89               -6.021              -21.998             
C              -7.309              -6.458              -22.326             
O              -7.75               -7.495              -21.81              
O              -8.014              -5.768              -23.096             
H              -3.425              -7.581              -22.808             
H              -3.684              -5.616              -20.778             
H              -5.269              -7.862              -21.327             
H              -5.61               -6.815              -20.122             
H              -5.935              -5.125              -21.598             
H              -5.371              -6.033              -22.832             
N              -2.734              -8.458              -19.487             
C              -2.151              -9.134              -18.328             
C              -0.819              -8.494              -17.999             
O              -0.579              -8.036              -16.885             
C              -2.002              -10.624             -18.558             
C              -1.18               -11.283             -17.422             
C              -3.378              -11.247             -18.658             
H              -2.876              -8.95               -20.409             
H              -2.766              -9                  -17.55              
H              -1.478              -10.769             -19.394             
H              -1.79               -11.487             -16.662             
H              -0.77               -12.122             -17.768             
H              -0.47               -10.649             -17.131             
H              -3.79               -11.007             -19.538             
H              -3.3                -12.243             -18.587             
H              -3.955              -10.904             -17.915             
N              0.023               -8.411              -19                 
C              1.346               -7.722              -18.85              
C              1.199               -6.288              -18.328             
O              1.805               -5.89               -17.328             
C              2.105               -7.814              -20.2               
C              3.497               -7.254              -20.026             
C              4.49                -8.054              -19.553             
C              3.753               -5.917              -20.192             
C              5.768               -7.541              -19.303             
C              5.02                -5.382              -19.959             
C              6.001               -6.201              -19.482             
O              7.292               -5.677              -19.243             
H              -0.274              -8.843              -19.888             
H              1.886               -8.25               -18.184             
H              2.169               -8.756              -20.446             
H              1.625               -7.271              -20.853             
H              4.325               -9.028              -19.374             
H              3.019               -5.299              -20.489             
H              6.496               -8.154              -18.999             
H              5.193               -4.418              -20.141             
H              7.934               -6.434              -19.223             
N              0.368               -5.466              -18.982             
C              0.191               -4.081              -18.583             
C              -0.393              -3.904              -17.202             
O              -0.077              -2.948              -16.497             
C              -0.666              -3.31               -19.623             
C              -0.005              -3.229              -21.005             
C              1.309               -2.429              -21.04              
O              1.28                -1.299              -20.545             
O              2.388               -2.919              -21.523             
H              -0.126              -5.905              -19.784             
H              1.092               -3.598              -18.635             
H              -1.508              -3.794              -19.724             
H              -0.778              -2.399              -19.292             
H              0.205               -4.147              -21.3               
H              -0.633              -2.783              -21.622             
N              -1.339              -4.773              -16.817             
C              -1.913              -4.664              -15.502             
C              -0.839              -4.749              -14.397             
O              -0.881              -4.044              -13.386             
C              -2.974              -5.741              -15.3               
H              -1.593              -5.479              -17.517             
H              -2.379              -3.771              -15.41              
H              -3.091              -6.255              -16.148             
H              -2.684              -6.361              -14.572             
H              -3.84               -5.311              -15.048             
N              0.076               -5.682              -14.58              
C              1.162               -5.908              -13.598             
C              2.179               -4.789              -13.727             
O              2.526               -4.189              -12.693             
C              1.844               -7.283              -13.819             
C              2.996               -7.477              -12.86              
C              0.879               -8.462              -13.686             
H              -0.018              -6.238              -15.448             
H              0.759               -5.867              -12.687             
H              2.221               -7.281              -14.742             
H              2.645               -7.638              -11.936             
H              3.546               -8.265              -13.145             
H              3.574               -6.659              -12.854             
H              1.274               -9.26               -14.138             
H              0.734               -8.658              -12.718             
H              0.011               -8.223              -14.117             
N              2.546               -4.449              -14.951             
C              3.477               -3.291              -15.184             
C              2.998               -2.001              -14.576             
O              3.786               -1.292              -13.954             
C              3.753               -3.052              -16.657             
C              4.89                -2.022              -16.884             
C              5.199               -1.755              -18.341             
C              6.671               -1.284              -18.467             
N              7.197               -0.45               -17.318             
H              2.164               -5.013              -15.718             
H              4.377               -3.544              -14.785             
H              4.034               -3.902              -17.077             
H              2.936               -2.694              -17.086             
H              4.621               -1.158              -16.436             
H              5.719               -2.367              -16.424             
H              5.103               -2.585              -18.858             
H              4.623               -1.034              -18.677             
H              7.259               -2.105              -18.567             
H              6.76                -0.747              -19.324             
H              7.066               -0.956              -16.471             
H              8.165               -0.275              -17.469             
H              6.692               0.407               -17.289             
N              1.712               -1.638              -14.797             
C              1.229               -0.316              -14.475             
C              0.711               -0.126              -13.089             
O              0.538               1.025               -12.655             
C              0.195               0.146               -15.509             
C              0.773               0.187               -16.892             
H              1.129               -2.392              -15.211             
H              2.026               0.327               -14.594             
H              -0.566              -0.493              -15.492             
H              -0.109              1.057               -15.255             
O              1.981               0.331               -17.077             
N              -0.06               0.011               -17.862             
H              -1.042              -0.139              -17.699             
H              0.26                0.02                -18.826             
N              0.474               -1.225              -12.359             
C              -0.029              -1.133              -11.015             
C              0.73                -0.146              -10.163             
O              1.979               -0.243              -10.035             
C              -0.122              -2.482              -10.31              
C              -0.687              -2.413              -8.941              
C              -2.073              -2.313              -8.75               
C              0.115               -2.28               -7.833              
C              -2.596              -2.217              -7.469              
C              -0.396              -2.131              -6.564              
C              -1.756              -2.064              -6.377              
O              -2.3                -1.919              -5.108              
H              0.684               -2.116              -12.848             
H              -1.002              -0.831              -11.056             
H              -0.698              -3.082              -10.869             
H              0.802               -2.866              -10.259             
H              -2.679              -2.311              -9.537              
H              1.121               -2.293              -7.952              
H              -3.593              -2.26               -7.33               
H              0.223               -2.071              -5.775              
H              -1.639              -1.453              -4.526              
N              -0.037              0.782               -9.552              
C              0.512               1.712               -8.572              
C              -0.25               1.627               -7.255              
O              -1.468              1.46                -7.263              
C              0.509               3.162               -9.079              
O              -0.853              3.524               -9.31               
C              1.281               3.255               -10.381             
H              -1.033              0.768               -9.842              
H              1.472               1.464               -8.398              
H              0.882               3.763               -8.356              
H              0.676               3.573               -11.116             
H              2.043               3.901               -10.282             
H              1.647               2.354               -10.627             
H              -1.128              3.279               -10.247             
N              0.463               1.783               -6.146              
C              -0.149              1.768               -4.82               
C              -0.684              3.193               -4.479              
O              -0.429              4.156               -5.222              
C              0.813               1.269               -3.74               
C              1.928               2.227               -3.417              
O              2.03                3.413               -3.862              
O              2.766               1.757               -2.669              
H              1.485               1.916               -6.3                
H              -0.949              1.172               -4.859              
H              0.278               1.102               -2.911              
H              1.207               0.407               -4.059              
N              -1.318              3.329               -3.314              
C              -1.855              4.654               -2.857              
C              -2.618              4.506               -1.515              
C              -1.728              4.195               -0.309              
C              -2.507              3.887               0.969               
C              -1.535              3.579               2.091               
N              -2.165              3.246               3.404               
H              -1.413              2.469               -2.753              
H              -2.596              4.928               -3.511              
H              -3.096              5.363               -1.34               
H              -3.277              3.765               -1.62               
H              -1.148              3.401               -0.532              
H              -1.127              4.986               -0.137              
H              -3.04               4.68                1.215               
H              -3.076              3.097               0.812               
H              -0.944              2.8                 1.808               
H              -0.919              4.379               2.221               
H              -2.573              4.071               3.791               
H              -2.871              2.554               3.264               
H              -1.466              2.893               4.024               
H              -1.12898            5.48487             -2.78088            
