364

C   16.445   -21.931   -11.987
O   17.155   -22.144   -12.959
N   15.354   -21.15   -12.053
C   14.862   -20.584   -13.297
C   14.664   -19.07   -13.164
O   13.568   -18.598   -12.768
C   13.555   -21.254   -13.699
C   13.048   -20.794   -15.035
C   12.065   -21.78   -15.67
C   11.152   -21.108   -16.699
N   11.951   -20.298   -17.67
H   14.895   -20.989   -11.126
H   15.534   -20.753   -14.027
H   13.709   -22.238   -13.735
H   12.872   -21.041   -13.005
H   12.58   -19.908   -14.932
H   13.822   -20.672   -15.667
H   12.582   -22.497   -16.129
H   11.496   -22.172   -14.953
H   10.65   -21.814   -17.194
H   10.512   -20.51   -16.221
H   11.579   -19.372   -17.709
H   12.902   -20.268   -17.367
H   11.897   -20.721   -18.573
N   15.681   -18.313   -13.529
C   15.607   -16.848   -13.441
C   14.477   -16.299   -14.36
O   14.174   -16.853   -15.445
C   16.991   -16.379   -13.902
C   17.887   -17.515   -13.509
C   17.088   -18.746   -13.796
H   15.459   -16.548   -12.497
H   17.006   -16.238   -14.889
H   17.254   -15.539   -13.435
H   18.731   -17.496   -14.05
H   18.121   -17.452   -12.536
H   17.177   -19.038   -14.746
H   17.331   -19.502   -13.188
N   13.784   -15.299   -13.845
C   12.716   -14.7   -14.596
C   12.604   -13.181   -14.258
O   12.725   -12.783   -13.106
C   11.429   -15.44   -14.237
C   10.228   -15.058   -15.108
S   10.411   -15.278   -16.897
C   10.411   -17.068   -16.892
H   14.071   -15.005   -12.897
H   12.921   -14.764   -15.576
H   11.58   -16.432   -14.331
H   11.193   -15.246   -13.277
H   9.401   -15.591   -14.757
H   9.977   -14.069   -14.886
H   9.489   -17.404   -16.693
H   10.701   -17.407   -17.789
H   11.043   -17.402   -16.191
N   12.387   -12.364   -15.264
C   12.081   -10.923   -15.11
C   11.04   -10.484   -16.134
O   10.674   -11.292   -17.013
C   13.445   -10.085   -15.112
C   14.189   -10.098   -16.452
O   13.635   -10.425   -17.545
O   15.437   -9.775   -16.33
H   12.447   -12.814   -16.214
H   11.673   -10.81   -14.201
H   13.2   -9.153   -14.879
H   14.02   -10.485   -14.411
N   10.477   -9.278   -15.956
C   9.403   -8.825   -16.835
C   9.895   -8.576   -18.264
O   9.127   -8.771   -19.193
C   8.74   -7.64   -16.261
C   8.018   -8.022   -14.991
S   6.932   -6.774   -14.252
C   5.877   -6.342   -15.6
H   10.859   -8.729   -15.175
H   8.7   -9.549   -16.873
H   9.413   -6.937   -16.036
H   8.068   -7.271   -16.901
H   7.481   -8.903   -15.175
H   8.732   -8.336   -14.292
H   6.233   -6.726   -16.458
H   4.951   -6.702   -15.447
H   5.822   -5.342   -15.693
N   11.141   -8.127   -18.447
C   11.694   -7.969   -19.822
C   11.704   -9.302   -20.594
O   11.427   -9.308   -21.804
C   13.094   -7.331   -19.807
C   13.071   -5.861   -19.378
C   12.55   -4.862   -20.385
O   12.206   -5.242   -21.551
O   12.56   -3.659   -19.967
H   11.668   -7.907   -17.598
H   11.14   -7.295   -20.323
H   13.637   -7.82   -19.158
H   13.449   -7.368   -20.716
H   12.498   -5.794   -18.562
H   14.008   -5.597   -19.149
N   11.97   -10.419   -19.931
C   11.917   -11.77   -20.497
C   10.506   -12.155   -21.016
O   10.307   -12.716   -22.12
C   12.299   -12.779   -19.438
C   12.908   -14.043   -19.936
C   13.955   -14.533   -18.937
C   14.61   -15.765   -19.479
N   13.616   -16.868   -19.509
H   12.235   -10.252   -18.916
H   12.562   -11.826   -21.275
H   12.95   -12.334   -18.805
H   11.466   -13.007   -18.911
H   12.21   -14.747   -20.027
H   13.358   -13.887   -20.809
H   14.632   -13.824   -18.82
H   13.501   -14.748   -18.087
H   14.934   -15.593   -20.404
H   15.369   -16.027   -18.892
H   13.497   -17.184   -20.45
H   13.941   -17.625   -18.941
H   12.741   -16.537   -19.155
N   9.572   -11.879   -20.144
C   8.125   -12.116   -20.457
C   7.716   -11.194   -21.596
O   7.067   -11.649   -22.567
C   7.274   -11.87   -19.178
C   7.559   -12.937   -18.117
C   5.761   -11.9   -19.542
C   6.94   -12.708   -16.725
H   9.882   -11.494   -19.24
H   8.08   -13.047   -20.799
H   7.537   -10.985   -18.808
H   7.233   -13.827   -18.461
H   8.559   -13.011   -18.001
H   5.234   -11.713   -18.721
H   5.587   -11.205   -20.23
H   5.539   -12.8   -19.897
H   5.951   -12.666   -16.82
H   7.198   -13.465   -16.134
H   7.288   -11.851   -16.36
N   8.034   -9.917   -21.48
C   7.738   -8.934   -22.508
C   8.31   -9.342   -23.899
O   7.622   -9.233   -24.905
C   8.251   -7.562   -22.14
C   7.548   -6.455   -22.889
C   8.327   -5.182   -22.909
N   9.432   -5.293   -23.87
C   10.262   -4.303   -24.217
N   10.156   -3.081   -23.677
N   11.225   -4.539   -25.104
H   8.519   -9.673   -20.582
H   6.737   -8.841   -22.605
H   8.105   -7.418   -21.168
H   9.219   -7.515   -22.358
H   7.388   -6.748   -23.838
H   6.657   -6.278   -22.456
H   7.733   -4.443   -23.19
H   8.702   -5.019   -22.008
H   9.579   -6.195   -24.308
H   9.457   -2.907   -22.987
H   10.775   -2.356   -23.966
H   11.334   -5.456   -25.489
H   11.839   -3.802   -25.384
N   9.546   -9.799   -23.933
C   10.154   -10.25   -25.219
C   9.442   -11.401   -25.874
O   9.164   -11.391   -27.08
C   11.617   -10.666   -25.019
O   12.283   -9.629   -24.376
H   10.05   -9.824   -23.039
H   10.13   -9.449   -25.85
H   11.636   -11.48   -24.46
H   12.018   -10.827   -25.907
H   11.969   -9.552   -23.426
N   9.161   -12.394   -25.053
C   8.436   -13.584   -25.459
C   7.054   -13.196   -26.023
O   6.668   -13.66   -27.108
C   8.385   -14.557   -24.298
C   8.084   -15.965   -24.681
H   9.509   -12.25   -24.07
H   8.946   -14.044   -26.19
H   9.275   -14.545   -23.816
H   7.678   -14.251   -23.641
N   9.043   -16.821   -25.166
C   6.924   -16.666   -24.67
C   8.499   -18.006   -25.387
N   7.21   -17.933   -25.104
H   10.002   -16.586   -25.326
H   6.029   -16.321   -24.397
H   8.978   -18.816   -25.713
N   6.374   -12.284   -25.324
C   5.085   -11.709   -25.762
C   5.181   -10.914   -27.081
O   4.372   -11.11   -28.026
C   4.48   -10.797   -24.658
C   3.128   -10.154   -25.031
S   2.459   -8.838   -23.982
C   3.698   -7.523   -23.979
H   6.834   -12.003   -24.425
H   4.439   -12.475   -25.911
H   4.349   -11.345   -23.825
H   5.134   -10.06   -24.457
H   3.211   -9.824   -26.03
H   2.43   -10.939   -25.128
H   4.328   -7.664   -24.741
H   3.241   -6.641   -24.078
H   4.2   -7.548   -23.116
N   6.135   -9.986   -27.145
C   6.362   -9.21   -28.365
C   6.784   -10.09   -29.577
O   6.541   -9.699   -30.726
C   7.346   -8.042   -28.126
C   6.847   -6.874   -27.268
S   5.178   -6.225   -27.624
C   5.115   -4.724   -26.653
H   6.688   -9.865   -26.278
H   5.497   -8.751   -28.617
H   8.189   -8.415   -27.691
H   7.629   -7.67   -29.032
H   6.914   -7.164   -26.266
H   7.553   -6.106   -27.333
H   4.168   -4.533   -26.389
H   5.673   -4.832   -25.828
H   5.468   -3.958   -27.193
N   7.319   -11.286   -29.347
C   7.633   -12.205   -30.428
C   6.571   -13.257   -30.709
O   6.814   -14.232   -31.452
C   8.97   -12.865   -30.157
H   7.489   -11.499   -28.343
H   7.779   -11.66   -31.285
H   9.498   -12.919   -31.006
H   9.481   -12.328   -29.485
H   8.824   -13.788   -29.8
N   5.377   -13.076   -30.148
C   4.278   -14.001   -30.403
C   4.494   -15.437   -30.015
O   3.915   -16.344   -30.606
C   3.881   -13.937   -31.887
C   2.891   -12.886   -32.138
H   5.301   -12.247   -29.535
H   3.474   -13.656   -29.857
H   4.711   -13.759   -32.41
H   3.507   -14.828   -32.134
O   3.072   -12.05   -33.003
N   1.831   -12.909   -31.374
H   1.711   -13.6   -30.66
H   1.103   -12.215   -31.496
N   5.303   -15.654   -29.0
C   5.644   -16.998   -28.595
C   4.733   -17.596   -27.54
O   4.792   -18.789   -27.362
C   7.122   -17.052   -28.188
C   8.069   -16.917   -29.372
C   9.512   -17.094   -28.922
C   10.437   -17.002   -30.125
N   11.892   -17.092   -29.81
H   5.663   -14.801   -28.531
H   5.622   -17.606   -29.421
H   7.298   -16.305   -27.558
H   7.29   -17.927   -27.748
H   7.852   -17.619   -30.045
H   7.964   -16.012   -29.773
H   9.742   -16.372   -28.289
H   9.614   -17.985   -28.511
H   10.197   -17.745   -30.777
H   10.261   -16.123   -30.605
H   12.228   -18.0   -30.057
H   12.386   -16.398   -30.332
H   12.028   -16.938   -28.832
N   3.879   -16.805   -26.847
C   2.878   -17.378   -25.944
C   1.685   -17.897   -26.785
O   1.159   -17.148   -27.578
C   2.369   -16.362   -24.912
C   3.359   -16.078   -23.801
C   3.7   -17.066   -22.91
C   3.915   -14.803   -23.622
C   4.6   -16.825   -21.86
C   4.808   -14.537   -22.566
C   5.133   -15.54   -21.692
O   6.039   -15.306   -20.666
H   4.0   -15.795   -27.013
H   3.28   -18.159   -25.475
H   2.177   -15.508   -25.385
H   1.538   -16.725   -24.503
H   3.306   -17.986   -22.997
H   3.678   -14.07   -24.251
H   4.858   -17.56   -21.242
H   5.191   -13.622   -22.469
H   6.303   -16.179   -20.265
N   1.331   -19.163   -26.598
C   0.227   -19.834   -27.317
C   -1.044   -19.833   -26.501
O   -2.111   -20.154   -27.025
C   0.622   -21.281   -27.679
C   1.829   -21.385   -28.581
C   2.185   -22.808   -28.914
H   1.912   -19.669   -25.879
H   0.062   -19.313   -28.164
H   0.816   -21.774   -26.829
H   -0.158   -21.713   -28.138
H   1.637   -20.894   -29.434
H   2.611   -20.955   -28.124
O   1.544   -23.77   -28.484
N   3.26   -22.963   -29.697
H   3.578   -23.9   -29.958
H   3.752   -22.14   -30.024
N   -0.962   -19.517   -25.202
C   -2.15   -19.197   -24.437
C   -1.831   -18.225   -23.308
O   -0.68   -18.053   -22.945
C   -2.841   -20.449   -23.89
C   -1.97   -21.262   -22.93
O   -0.814   -20.888   -22.594
O   -2.467   -22.323   -22.507
H   -0.004   -19.524   -24.815
H   -2.791   -18.726   -25.056
H   -3.661   -20.162   -23.403
H   -3.086   -21.03   -24.66
N   -2.873   -17.652   -22.728
C   -2.726   -16.74   -21.601
C   -2.108   -17.395   -20.344
O   -1.314   -16.761   -19.608
C   -4.103   -16.128   -21.277
C   -4.577   -15.312   -22.47
C   -4.046   -15.226   -20.057
C   -6.077   -15.342   -22.612
H   -3.796   -17.905   -23.14
H   -2.071   -16.024   -21.893
H   -4.74   -16.872   -21.135
H   -4.28   -14.373   -22.352
H   -4.169   -15.691   -23.293
H   -4.955   -14.855   -19.872
H   -3.736   -15.751   -19.266
H   -3.41   -14.474   -20.225
H   -6.498   -14.964   -21.788
H   -6.349   -14.796   -23.405
H   -6.382   -16.286   -22.738
N   -2.442   -18.647   -20.074
C   -2.002   -19.259   -18.826
C   -0.506   -19.568   -18.809
O   0.081   -19.57   -17.763
C   -2.886   -20.447   -18.422
C   -4.204   -19.973   -17.796
O   -4.19   -18.948   -17.055
O   -5.25   -20.579   -18.045
H   -3.008   -19.124   -20.783
H   -2.172   -18.586   -18.086
H   -3.094   -20.967   -19.232
H   -2.398   -20.983   -17.756
N   0.113   -19.701   -19.973
C   1.564   -19.768   -20.021
C   2.06   -20.05   -21.43
O   1.467   -21.204   -21.982
H   -0.497   -19.75   -20.799
H   1.87   -20.517   -19.416
H   1.845   -19.264   -22.012
H   3.054   -20.177   -21.403
H   0.52   -21.007   -22.238
H   2.04083   -18.8359   -19.6562
H   16.6851   -22.3624   -11.0475
