285
3.xyz
C              -15.361             -12.366             1.117               
O              -15.025             -13.494             0.736               
N              -16.598             -12.101             1.54                
C              -17.622             -13.139             1.504               
C              -18.008             -13.499             0.072               
O              -18.222             -14.677             -0.23               
C              -18.829             -12.738             2.358               
C              -18.531             -12.75              3.861               
C              -19.708             -12.308             4.713               
C              -20.848             -13.298             4.665               
N              -21.864             -12.953             5.684               
H              -16.755             -11.144             1.877               
H              -17.264             -13.967             1.959               
H              -19.101             -11.818             2.104               
H              -19.565             -13.382             2.183               
H              -18.267             -13.685             4.128               
H              -17.751             -12.139             4.039               
H              -19.402             -12.216             5.659               
H              -20.034             -11.426             4.377               
H              -21.266             -13.273             3.759               
H              -20.495             -14.214             4.847               
H              -22.17              -13.785             6.148               
H              -21.467             -12.326             6.355               
H              -22.647             -12.513             5.242               
N              -18.071             -12.514             -0.833              
C              -18.303             -12.833             -2.243              
C              -17.183             -13.715             -2.771              
O              -17.421             -14.745             -3.414              
C              -18.428             -11.561             -3.102              
C              -19.59              -10.675             -2.661              
C              -18.606             -11.95              -4.571              
C              -19.586             -9.308              -3.331              
H              -17.948             -11.567             -0.466              
H              -19.141             -13.381             -2.271              
H              -17.581             -11.036             -2.997              
H              -20.444             -11.136             -2.879              
H              -19.531             -10.544             -1.675              
H              -18.626             -11.125             -5.13               
H              -17.844             -12.528             -4.853              
H              -19.463             -12.448             -4.678              
H              -19.651             -9.428              -4.319              
H              -20.366             -8.781              -3.002              
H              -18.738             -8.835              -3.103              
N              -15.935             -13.309             -2.526              
C              -14.794             -14.046             -3.07               
C              -14.747             -15.463             -2.514              
O              -14.367             -16.409             -3.214              
C              -13.489             -13.275             -2.796              
C              -12.267             -14.115             -3.169              
C              -13.492             -11.951             -3.538              
H              -15.851             -12.465             -1.944              
H              -14.909             -14.106             -4.068              
H              -13.435             -13.107             -1.816              
H              -11.511             -13.509             -3.411              
H              -12.006             -14.682             -2.39               
H              -12.492             -14.698             -3.948              
H              -14.046             -12.036             -4.367              
H              -13.878             -11.241             -2.948              
H              -12.554             -11.707             -3.786              
N              -15.103             -15.631             -1.24               
C              -15.155             -16.954             -0.631              
C              -16.406             -17.733             -1.019              
O              -16.57              -18.878             -0.577              
C              -15.06              -16.835             0.894               
H              -15.334             -14.756             -0.734              
H              -14.342             -17.482             -0.932              
H              -15.845             -16.321             1.233               
H              -15.057             -17.749             1.296               
H              -14.217             -16.359             1.135               
N              -17.278             -17.138             -1.834              
C              -18.52              -17.758             -2.297              
C              -19.45              -18.128             -1.143              
O              -20.109             -19.171             -1.159              
C              -18.267             -18.941             -3.232              
C              -19.426             -19.183             -4.182              
H              -16.992             -16.166             -2.122              
H              -19.005             -17.07              -2.857              
H              -17.452             -18.75              -3.769              
H              -18.134             -19.757             -2.679              
O              -20.143             -18.25              -4.553              
N              -19.618             -20.433             -4.579              
H              -19.014             -21.16              -4.245              
H              -20.362             -20.654             -5.208              
N              -19.542             -17.237             -0.153              
C              -20.39              -17.481             1.008               
C              -21.828             -17.004             0.827               
O              -22.704             -17.425             1.594               
C              -19.767             -16.885             2.28                
C              -18.458             -17.567             2.684               
C              -17.92              -17.121             4.037               
O              -18.545             -16.26              4.694               
O              -16.859             -17.643             4.448               
H              -18.973             -16.382             -0.281              
H              -20.393             -18.477             1.221               
H              -19.567             -15.944             2.102               
H              -20.404             -17.01              3.012               
H              -18.623             -18.538             2.735               
H              -17.776             -17.347             2.007               
N              -22.1               -16.143             -0.155              
C              -23.469             -15.728             -0.45               
C              -24.071             -16.692             -1.462              
O              -23.516             -16.891             -2.549              
C              -23.516             -14.311             -1.019              
C              -23.07              -13.237             -0.059              
C              -23.771             -12.989             1.111               
C              -21.947             -12.461             -0.332              
C              -23.365             -12.006             1.993               
C              -21.535             -11.47              0.544               
C              -22.249             -11.252             1.697               
O              -21.828             -10.267             2.553               
H              -21.272             -15.803             -0.678              
H              -24.004             -15.783             0.393               
H              -22.923             -14.278             -1.824              
H              -24.458             -14.115             -1.291              
H              -24.589             -13.532             1.322               
H              -21.431             -12.623             -1.171              
H              -23.875             -11.844             2.839               
H              -20.726             -10.921             0.336               
H              -22.266             -10.393             3.442               
N              -25.209             -17.284             -1.112              
C              -25.907             -18.19              -2.015              
C              -27.174             -17.584             -2.595              
O              -27.835             -18.223             -3.425              
C              -26.217             -19.526             -1.326              
C              -25.002             -20.18              -0.695              
C              -23.949             -20.547             -1.722              
C              -22.757             -21.214             -1.039              
N              -21.622             -21.483             -1.971              
H              -25.548             -17.049             -0.16               
H              -25.283             -18.431             -2.78               
H              -26.891             -19.356             -0.613              
H              -26.592             -20.146             -2.01               
H              -24.598             -19.545             -0.029              
H              -25.291             -21.013             -0.214              
H              -24.336             -21.186             -2.371              
H              -23.632             -19.726             -2.172              
H              -22.436             -20.616             -0.294              
H              -23.062             -22.085             -0.634              
H              -21.311             -20.621             -2.368              
H              -20.874             -21.91              -1.465              
H              -21.93              -22.096             -2.697              
N              -27.527             -16.366             -2.186              
C              -28.668             -15.666             -2.751              
C              -28.416             -14.17              -2.652              
O              -27.647             -13.703             -1.805              
C              -29.964             -15.999             -2.012              
O              -29.939             -15.47              -0.701              
H              -26.921             -15.969             -1.438              
H              -28.735             -15.904             -3.718              
H              -30.728             -15.602             -2.509              
H              -30.059             -16.988             -1.962              
H              -29.278             -15.976             -0.148              
N              -29.076             -13.422             -3.536              
C              -29.048             -11.967             -3.444              
C              -29.654             -11.514             -2.122              
O              -29.211             -10.528             -1.522              
C              -29.755             -11.349             -4.667              
C              -29.877             -9.844              -4.523              
C              -29.013             -11.709             -5.943              
H              -29.587             -13.945             -4.261              
H              -28.09              -11.67              -3.464              
H              -30.681             -11.718             -4.697              
H              -28.966             -9.43               -4.537              
H              -30.42              -9.476              -5.279              
H              -30.327             -9.624              -3.656              
H              -28.402             -12.48              -5.764              
H              -29.674             -11.961             -6.651              
H              -28.478             -10.921             -6.249              
N              -30.671             -12.234             -1.643              
C              -31.283             -11.887             -0.365              
C              -30.258             -11.857             0.765               
O              -30.283             -10.951             1.608               
C              -32.422             -12.861             -0.065              
O              -33.453             -12.705             -1.047              
C              -32.981             -12.597             1.308               
H              -30.97              -13.022             -2.233              
H              -31.692             -10.967             -0.445              
H              -32.069             -13.817             -0.127              
H              -32.241             -12.585             1.989               
H              -33.451             -11.708             1.328               
H              -33.639             -13.314             1.56                
H              -33.284             -11.886             -1.605              
N              -29.349             -12.835             0.801               
C              -28.331             -12.855             1.85                
C              -27.399             -11.655             1.758               
O              -26.984             -11.108             2.786               
C              -27.531             -14.152             1.765               
C              -28.334             -15.38              2.138               
C              -27.622             -16.681             1.836               
O              -26.478             -16.654             1.327               
O              -28.214             -17.744             2.109               
H              -29.427             -13.539             0.058               
H              -28.781             -12.863             2.755               
H              -27.233             -14.259             0.835               
H              -26.779             -14.082             2.393               
H              -28.507             -15.354             3.109               
H              -29.173             -15.374             1.619               
N              -27.008             -11.281             0.539               
C              -26.146             -10.119             0.352               
C              -26.856             -8.851              0.807               
O              -26.288             -8.029              1.541               
C              -25.769             -10.035             -1.122              
C              -24.942             -8.836              -1.478              
C              -23.566             -8.851              -1.316              
C              -25.536             -7.687              -1.975              
C              -22.806             -7.749              -1.658              
C              -24.789             -6.594              -2.323              
C              -23.421             -6.614              -2.157              
H              -27.359             -11.869             -0.234              
H              -25.353             -10.241             0.957               
H              -25.246             -10.846             -1.349              
H              -26.608             -9.996              -1.649              
H              -23.118             -9.663              -0.951              
H              -26.538             -7.663              -2.08               
H              -21.805             -7.777              -1.541              
H              -25.245             -5.767              -2.703              
H              -22.869             -5.814              -2.395              
N              -28.119             -8.698              0.408               
C              -28.892             -7.536              0.834               
C              -29.005             -7.47               2.353               
O              -29.004             -6.378              2.933               
C              -30.28              -7.571              0.194               
C              -30.281             -7.339              -1.314              
C              -31.64              -7.655              -1.94               
C              -32.764             -6.832              -1.35               
N              -34.08              -7.236              -1.928              
H              -28.483             -9.442              -0.202              
H              -28.43              -6.7                0.508               
H              -30.684             -8.466              0.371               
H              -30.839             -6.86               0.619               
H              -30.059             -6.38               -1.497              
H              -29.589             -7.926              -1.736              
H              -31.586             -7.471              -2.922              
H              -31.839             -8.624              -1.794              
H              -32.788             -6.968              -0.36               
H              -32.604             -5.865              -1.549              
H              -34.466             -6.468              -2.436              
H              -33.946             -8.012              -2.542              
H              -34.699             -7.495              -1.188              
N              -29.151             -8.625              3.008               
C              -29.245             -8.639              4.466               
C              -27.963             -8.125              5.116               
O              -28.015             -7.431              6.138               
C              -29.559             -10.05              4.959               
H              -29.189             -9.465              2.418               
H              -30.009             -8.042              4.747               
H              -28.729             -10.604             4.928               
H              -29.897             -10.006             5.898               
H              -30.256             -10.459             4.372               
N              -26.799             -8.489              4.569               
C              -25.547             -7.954              5.11                
C              -25.443             -6.451              4.87                
O              -24.976             -5.708              5.744               
C              -24.328             -8.674              4.517               
C              -23.858             -9.855              5.357               
O              -24.358             -10.044             6.486               
O              -22.946             -10.576             4.898               
H              -26.859             -9.138              3.783               
H              -25.572             -8.093              6.107               
H              -24.578             -9.006              3.613               
H              -23.586             -8.016              4.45                
N              -25.854             -5.994              3.688               
C              -25.878             -4.561              3.426               
C              -26.764             -3.839              4.437               
O              -26.369             -2.815              5.009               
C              -26.329             -4.292              1.99                
C              -26.382             -2.828              1.645               
C              -25.25              -2.027              1.764               
C              -27.57              -2.253              1.206               
C              -25.309             -0.678              1.44                
C              -27.627             -0.905              0.882               
C              -26.496             -0.12               1.008               
H              -26.139             -6.712              3.01                
H              -24.942             -4.22               3.566               
H              -25.683             -4.725              1.383               
H              -27.237             -4.664              1.882               
H              -24.395             -2.419              2.08                
H              -28.39              -2.818              1.123               
H              -24.477             -0.112              1.525               
H              -28.498             -0.505              0.556               
H              -26.535             0.858               0.785               
N              -27.963             -4.368              4.683               
H              -28.184             -5.225              4.164               
H              -14.6567            -11.5696            1.13096             
H              -28.5854            -3.92322            5.34496             
