360

C   -21.665   -16.933   0.884
O   -22.53   -17.363   1.657
N   -21.95   -16.048   -0.069
C   -23.328   -15.672   -0.355
C   -23.892   -16.654   -1.368
O   -23.264   -16.908   -2.401
C   -23.407   -14.259   -0.932
C   -22.975   -13.174   0.019
C   -23.72   -12.891   1.163
C   -21.831   -12.422   -0.229
C   -23.336   -11.892   2.04
C   -21.442   -11.424   0.638
C   -22.194   -11.172   1.776
O   -21.813   -10.189   2.633
H   -21.132   -15.665   -0.571
H   -23.859   -15.75   0.486
H   -22.821   -14.22   -1.741
H   -24.355   -14.084   -1.198
H   -24.55   -13.422   1.352
H   -21.288   -12.612   -1.045
H   -23.883   -11.699   2.855
H   -20.622   -10.88   0.452
H   -22.243   -10.335   3.525
N   -25.071   -17.203   -1.072
C   -25.762   -18.092   -1.997
C   -27.043   -17.488   -2.556
O   -27.705   -18.128   -3.384
C   -26.047   -19.449   -1.341
C   -24.806   -20.148   -0.815
C   -23.81   -20.424   -1.918
C   -22.636   -21.232   -1.392
N   -21.576   -21.362   -2.426
H   -25.446   -16.944   -0.137
H   -25.14   -18.304   -2.772
H   -26.672   -19.299   -0.579
H   -26.477   -20.037   -2.022
H   -24.374   -19.566   -0.123
H   -25.075   -21.016   -0.392
H   -24.255   -20.945   -2.636
H   -23.467   -19.562   -2.271
H   -22.259   -20.772   -0.588
H   -22.958   -22.143   -1.133
H   -21.699   -22.221   -2.922
H   -21.639   -20.595   -3.065
H   -20.679   -21.356   -1.985
N   -27.404   -16.275   -2.135
C   -28.585   -15.595   -2.646
C   -28.368   -14.093   -2.548
O   -27.595   -13.611   -1.716
C   -29.847   -15.986   -1.874
O   -29.813   -15.505   -0.538
H   -26.771   -15.864   -1.416
H   -28.689   -15.83   -3.612
H   -30.64   -15.598   -2.337
H   -29.917   -16.981   -1.857
H   -29.147   -16.032   -0.013
N   -29.069   -13.355   -3.413
C   -29.09   -11.899   -3.302
C   -29.676   -11.482   -1.956
O   -29.23   -10.504   -1.343
C   -29.843   -11.282   -4.497
C   -29.974   -9.774   -4.349
C   -29.134   -11.624   -5.79
H   -29.573   -13.886   -4.137
H   -28.144   -11.568   -3.343
H   -30.768   -11.657   -4.498
H   -29.069   -9.372   -4.211
H   -30.385   -9.391   -5.176
H   -30.554   -9.564   -3.562
H   -29.439   -11.002   -6.513
H   -28.145   -11.53   -5.664
H   -29.348   -12.567   -6.049
N   -30.673   -12.225   -1.469
C   -31.271   -11.917   -0.169
C   -30.218   -11.879   0.935
O   -30.225   -10.973   1.779
C   -32.381   -12.927   0.134
O   -33.408   -12.812   -0.858
C   -32.997   -12.694   1.505
H   -30.973   -13.007   -2.069
H   -31.704   -11.008   -0.225
H   -31.996   -13.87   0.083
H   -32.279   -12.696   2.205
H   -33.468   -11.809   1.521
H   -33.657   -13.421   1.71
H   -33.329   -11.935   -1.343
N   -29.299   -12.85   0.948
C   -28.258   -12.854   1.976
C   -27.353   -11.634   1.872
O   -26.961   -11.054   2.891
C   -27.426   -14.123   1.853
C   -28.212   -15.359   2.194
C   -27.522   -16.643   1.815
O   -26.341   -16.611   1.392
O   -28.186   -17.693   1.94
H   -29.387   -13.554   0.21
H   -28.689   -12.877   2.89
H   -27.132   -14.197   0.921
H   -26.68   -14.054   2.484
H   -28.358   -15.377   3.173
H   -29.073   -15.329   1.706
N   -26.961   -11.273   0.655
C   -26.132   -10.086   0.452
C   -26.863   -8.83   0.918
O   -26.286   -7.982   1.609
C   -25.749   -10.003   -1.034
C   -24.929   -8.796   -1.41
C   -23.547   -8.798   -1.248
C   -25.537   -7.683   -1.958
C   -22.789   -7.69   -1.606
C   -24.789   -6.567   -2.32
C   -23.415   -6.571   -2.151
H   -27.283   -11.885   -0.112
H   -25.325   -10.188   1.042
H   -25.22   -10.813   -1.254
H   -26.59   -9.978   -1.56
H   -23.093   -9.6   -0.873
H   -26.529   -7.675   -2.099
H   -21.794   -7.7   -1.469
H   -25.258   -5.756   -2.705
H   -22.868   -5.779   -2.417
N   -28.14   -8.7   0.538
C   -28.953   -7.567   0.968
C   -29.055   -7.497   2.485
O   -29.073   -6.408   3.064
C   -30.338   -7.648   0.331
C   -30.346   -7.298   -1.159
C   -31.698   -7.599   -1.839
C   -32.884   -6.963   -1.131
N   -34.195   -7.422   -1.703
H   -28.489   -9.459   -0.074
H   -28.527   -6.715   0.633
H   -30.678   -8.578   0.431
H   -30.94   -7.009   0.802
H   -30.15   -6.32   -1.267
H   -29.634   -7.828   -1.624
H   -31.659   -7.253   -2.777
H   -31.826   -8.591   -1.855
H   -32.854   -7.205   -0.158
H   -32.824   -5.966   -1.221
H   -34.934   -7.11   -1.111
H   -34.304   -7.035   -2.616
H   -34.196   -8.418   -1.753
N   -29.109   -8.646   3.151
C   -29.186   -8.629   4.607
C   -27.901   -8.08   5.22
O   -27.946   -7.344   6.213
C   -29.492   -10.033   5.13
H   -29.093   -9.496   2.581
H   -29.952   -8.036   4.885
H   -28.833   -10.679   4.749
H   -29.426   -10.036   6.126
H   -30.415   -10.295   4.854
N   -26.746   -8.45   4.669
C   -25.498   -7.904   5.193
C   -25.407   -6.408   4.92
O   -24.944   -5.648   5.771
C   -24.289   -8.624   4.594
C   -23.828   -9.812   5.421
O   -24.361   -10.049   6.531
O   -22.893   -10.5   4.953
H   -26.811   -9.111   3.893
H   -25.518   -8.021   6.192
H   -24.541   -8.947   3.687
H   -23.541   -7.971   4.53
N   -25.853   -5.968   3.744
C   -25.842   -4.544   3.443
C   -26.735   -3.775   4.414
O   -26.355   -2.707   4.91
C   -26.285   -4.315   1.995
C   -26.432   -2.862   1.625
C   -25.336   -2.016   1.618
C   -27.671   -2.343   1.298
C   -25.475   -0.669   1.278
C   -27.809   -1.008   0.948
C   -26.707   -0.172   0.944
H   -26.19   -6.695   3.099
H   -24.903   -4.217   3.594
H   -25.601   -4.713   1.403
H   -27.164   -4.751   1.875
H   -24.434   -2.363   1.856
H   -28.478   -2.935   1.313
H   -24.658   -0.077   1.285
H   -28.725   -0.65   0.696
H   -26.812   0.794   0.697
N   -27.934   -4.3   4.687
C   -28.837   -3.651   5.629
C   -28.255   -3.659   7.036
O   -28.379   -2.674   7.775
C   -30.206   -4.334   5.597
C   -31.216   -3.694   6.552
C   -32.634   -4.133   6.251
C   -33.634   -3.423   7.148
N   -33.356   -3.624   8.608
H   -28.152   -5.176   4.186
H   -28.976   -2.695   5.342
H   -30.568   -4.269   4.675
H   -30.089   -5.284   5.861
H   -30.983   -3.958   7.49
H   -31.155   -2.698   6.465
H   -32.847   -3.914   5.304
H   -32.711   -5.113   6.405
H   -33.612   -2.436   6.947
H   -34.559   -3.766   6.945
H   -33.372   -2.739   9.068
H   -34.057   -4.219   8.994
H   -32.458   -4.045   8.714
N   -27.624   -4.767   7.43
C   -26.98   -4.813   8.739
C   -25.94   -3.705   8.867
O   -25.867   -3.011   9.894
C   -26.335   -6.185   8.941
C   -25.43   -6.392   10.161
C   -26.206   -6.24   11.467
C   -24.732   -7.752   10.082
H   -27.633   -5.544   6.761
H   -27.68   -4.674   9.447
H   -27.074   -6.864   9.004
H   -25.783   -6.387   8.126
H   -24.691   -5.715   10.135
H   -26.939   -6.918   11.498
H   -25.587   -6.381   12.239
H   -26.598   -5.322   11.515
H   -24.176   -7.79   9.252
H   -24.147   -7.87   10.884
H   -25.421   -8.476   10.059
N   -25.127   -3.523   7.825
C   -24.091   -2.498   7.844
C   -24.701   -1.116   8.046
O   -24.242   -0.333   8.891
C   -23.301   -2.565   6.536
C   -22.165   -1.564   6.425
S   -21.485   -1.535   4.751
C   -22.831   -0.679   3.923
H   -25.295   -4.158   7.025
H   -23.479   -2.683   8.62
H   -22.917   -3.496   6.434
H   -23.937   -2.413   5.763
H   -22.512   -0.644   6.688
H   -21.444   -1.808   7.101
H   -23.546   -0.461   4.588
H   -22.486   0.166   3.514
H   -23.208   -1.266   3.207
N   -25.762   -0.81   7.301
C   -26.416   0.489   7.454
C   -27.098   0.615   8.814
O   -27.006   1.665   9.459
C   -27.409   0.744   6.315
S   -26.694   0.726   4.668
H   -26.065   -1.534   6.64
H   -25.711   1.206   7.391
H   -28.118   0.038   6.364
H   -27.829   1.641   6.472
H   -27.422   0.776   3.982
N   -27.794   -0.437   9.261
C   -28.452   -0.39   10.565
C   -27.438   -0.154   11.678
O   -27.715   0.574   12.636
C   -29.216   -1.692   10.829
C   -30.489   -1.808   10.007
O   -30.965   -0.775   9.494
O   -31.031   -2.936   9.904
H   -27.821   -1.247   8.628
H   -29.072   0.403   10.557
H   -28.617   -2.451   10.598
H   -29.455   -1.718   11.793
N   -26.259   -0.775   11.577
C   -25.219   -0.528   12.575
C   -24.86   0.953   12.64
O   -24.709   1.516   13.731
C   -23.965   -1.356   12.282
C   -24.156   -2.841   12.544
H   -26.157   -1.407   10.778
H   -25.603   -0.778   13.471
H   -23.723   -1.232   11.322
H   -23.226   -1.024   12.864
O   -25.076   -3.251   13.256
N   -23.275   -3.654   11.968
H   -22.538   -3.278   11.407
H   -23.349   -4.644   12.097
N   -24.716   1.6   11.481
C   -24.353   3.01   11.463
C   -25.465   3.871   12.039
O   -25.185   4.901   12.662
C   -24.014   3.459   10.04
H   -24.879   1.032   10.638
H   -23.523   3.139   12.022
H   -24.75   3.185   9.423
H   -23.914   4.452   10.022
H   -23.159   3.03   9.753
N   -26.724   3.472   11.838
C   -27.846   4.196   12.413
C   -28.11   3.821   13.86
O   -28.955   4.45   14.501
C   -29.103   4.009   11.566
C   -29.004   4.691   10.216
S   -30.475   4.447   9.234
C   -30.311   2.714   8.809
H   -26.822   2.624   11.252
H   -27.63   5.187   12.381
H   -29.255   3.028   11.419
H   -29.889   4.389   12.06
H   -28.825   5.688   10.37
H   -28.174   4.334   9.732
H   -30.808   2.528   7.96
H   -29.344   2.489   8.684
H   -30.69   2.151   9.545
N   -27.42   2.813   14.386
C   -27.536   2.487   15.799
C   -26.469   3.199   16.616
O   -26.768   3.775   17.667
C   -27.435   0.975   16.013
O   -28.572   0.335   15.427
C   -27.387   0.652   17.505
H   -26.816   2.301   13.723
H   -28.441   2.791   16.125
H   -26.598   0.628   15.543
H   -26.436   0.654   17.82
H   -27.906   1.34   18.016
H   -27.787   -0.252   17.667
H   -28.5   0.342   14.424
N   -25.226   3.174   16.136
C   -24.117   3.729   16.897
C   -24.08   5.251   16.826
O   -23.765   5.91   17.825
C   -22.796   3.143   16.401
C   -21.61   3.746   17.097
C   -21.167   3.245   18.315
C   -20.943   4.835   16.55
C   -20.078   3.809   18.966
C   -19.86   5.404   17.192
C   -19.434   4.89   18.397
O   -18.354   5.466   19.025
H   -25.126   2.738   15.204
H   -24.232   3.464   17.867
H   -22.804   2.167   16.576
H   -22.719   3.328   15.43
H   -21.638   2.466   18.732
H   -21.253   5.211   15.677
H   -19.764   3.433   19.838
H   -19.387   6.187   16.783
H   -18.154   4.961   19.863
N   -24.402   5.824   15.672
C   -24.272   7.255   15.439
C   -25.605   7.958   15.652
O   -26.67   7.397   15.393
C   -23.796   7.521   14.012
C   -22.489   6.834   13.707
H   -24.757   5.158   14.946
H   -23.636   7.614   16.131
H   -24.49   7.185   13.382
H   -23.677   8.504   13.9
O   -21.432   7.241   14.188
N   -22.552   5.775   12.91
H   -23.433   5.476   12.542
H   -21.719   5.273   12.675
N   -25.528   9.204   16.118
H   -24.567   9.536   16.316
H   -20.6599   -17.2729   0.988698
H   -26.3558   9.76118   16.2589
