206
2.xyz
C              65.975              20.769              39.928              
O              66.136              21.995              39.895              
N              65.258              20.118              39.02               
C              64.628              20.775              37.879              
C              63.167              21.108              38.16               
O              62.711              22.22               37.89               
C              64.778              19.895              36.618              
C              66.229              19.898              36.13               
C              63.816              20.334              35.525              
C              66.486              18.943              34.986              
H              65.182              19.086              39.192              
H              65.105              21.653              37.76               
H              64.537              18.963              36.866              
H              66.462              20.824              35.84               
H              66.816              19.645              36.898              
H              63.887              19.711              34.748              
H              62.881              20.32               35.877              
H              64.046              21.26               35.23               
H              65.909              19.193              34.209              
H              67.447              18.996              34.719              
H              66.271              18.012              35.277              
N              62.428              20.154              38.717              
C              60.987              20.264              38.917              
C              60.756              20.644              40.375              
O              60.882              19.809              41.275              
C              60.282              18.954              38.556              
C              58.804              19.037              38.879              
C              60.495              18.624              37.087              
H              62.976              19.304              39.005              
H              60.647              21.004              38.348              
H              60.666              18.233              39.128              
H              58.68               19.145              39.866              
H              58.399              19.822              38.408              
H              58.345              18.199              38.578              
H              59.907              17.857              36.832              
H              60.265              19.423              36.532              
H              61.453              18.377              36.939              
N              60.396              21.906              40.616              
C              60.232              22.4                41.978              
C              58.856              22.125              42.569              
O              58.709              22.17               43.796              
C              60.534              23.9                42.047              
C              61.952              24.255              41.634              
C              62.973              23.433              42.409              
C              64.391              23.795              42.005              
N              65.407              23.058              42.806              
H              60.248              22.486              39.771              
H              60.933              21.957              42.571              
H              59.901              24.372              41.44               
H              60.394              24.202              42.987              
H              62.065              24.071              40.658              
H              62.114              25.224              41.815              
H              62.861              23.616              43.379              
H              62.823              22.47               42.216              
H              64.519              23.578              41.032              
H              64.525              24.783              42.133              
H              65.914              23.705              43.374              
H              64.947              22.389              43.389              
H              66.038              22.588              42.189              
N              57.85               21.845              41.739              
C              56.494              21.538              42.2                
C              56.031              20.243              41.548              
O              55.216              20.261              40.617              
C              55.526              22.679              41.88               
C              55.775              23.96               42.656              
C              54.767              25.04               42.319              
H              58.113              21.863              40.726              
H              56.531              21.391              43.187              
H              55.592              22.89               40.9                
H              54.589              22.37               42.079              
H              55.714              23.761              43.633              
H              56.689              24.296              42.436              
O              54.342              25.171              41.169              
N              54.371              25.816              43.321              
H              53.707              26.571              43.168              
H              54.744              25.643              44.254              
N              56.52               19.096              42.02               
C              56.104              17.822              41.421              
C              54.618              17.566              41.63               
O              54.027              17.982              42.629              
C              56.953              16.786              42.166              
C              57.316              17.444              43.45               
C              57.46               18.903              43.137              
H              56.338              17.798              40.44               
H              56.423              15.947              42.326              
H              57.772              16.553              41.633              
H              56.597              17.294              44.141              
H              58.179              17.067              43.809              
H              57.201              19.474              43.915              
H              58.393              19.129              42.853              
N              54.016              16.873              40.665              
C              52.6                16.537              40.731              
C              52.344              15.308              39.867              
O              53.029              15.081              38.867              
C              51.723              17.718              40.281              
C              50.214              17.529              40.474              
S              49.741              17.127              42.169              
C              50.425              18.532              43.044              
H              54.635              16.599              39.877              
H              52.375              16.304              41.676              
H              52.004              18.546              40.792              
H              51.895              17.895              39.298              
H              49.743              18.388              40.156              
H              49.898              16.797              39.822              
H              49.912              18.683              43.891              
H              51.385              18.355              43.265              
H              50.362              19.349              42.469              
N              51.353              14.516              40.272              
C              50.986              13.305              39.553              
C              49.488              13.079              39.713              
O              48.838              13.675              40.575              
C              51.772              12.099              40.07               
C              51.413              11.753              41.49               
O              50.547              10.877              41.684              
O              51.973              12.385              42.412              
H              50.871              14.837              41.138              
H              51.156              13.47               38.583              
H              51.563              11.325              39.484              
H              52.737              12.322              40.024              
N              48.948              12.189              38.874              
C              47.502              11.979              38.843              
C              46.992              11.354              40.136              
O              45.894              11.69               40.601              
C              47.121              11.119              37.639              
C              47.487              11.693              36.269              
C              47.183              10.683              35.179              
C              46.764              13.009              36.003              
H              49.618              11.686              38.276              
H              47.051              12.875              38.723              
H              47.587              10.244              37.728              
H              46.136              10.99               37.654              
H              48.461              11.912              36.26               
H              46.207              10.46               35.189              
H              47.425              11.067              34.287              
H              47.714              9.849               35.335              
H              47.018              13.676              36.704              
H              47.025              13.356              35.102              
H              45.776              12.857              36.029              
N              47.762              10.434              40.721              
C              47.341              9.821               41.97               
C              47.23               10.822              43.101              
O              46.29               10.771              43.9                
H              48.636              10.212              40.229              
H              46.443              9.367               41.835              
H              48.004              9.096               42.228              
N              48.182              11.756              43.175              
C              48.114              12.807              44.184              
C              46.903              13.706              43.964              
O              46.232              14.101              44.924              
C              49.412              13.615              44.176              
O              50.509              12.758              44.521              
C              49.34               14.772              45.166              
H              48.938              11.668              42.481              
H              48.027              12.375              45.091              
H              49.576              13.974              43.235              
H              48.382              15.006              45.345              
H              49.781              14.509              46.027              
H              49.809              15.572              44.786              
H              51.095              12.601              43.719              
N              46.604              14.038              42.705              
C              45.417              14.836              42.404              
C              44.153              14.11               42.845              
O              43.246              14.711              43.441              
C              45.379              15.191              40.906              
C              46.516              16.151              40.552              
C              44.023              15.773              40.529              
C              46.682              16.351              39.062              
H              47.263              13.693              41.992              
H              45.485              15.664              42.967              
H              45.511              14.352              40.389              
H              46.331              17.031              40.98               
H              47.364              15.781              40.923              
H              43.997              15.946              39.546              
H              43.303              15.125              40.772              
H              43.879              16.629              41.022              
H              45.838              16.727              38.682              
H              47.436              16.985              38.895              
H              46.881              15.473              38.63               
N              44.061              12.812              42.544              
C              42.904              12.037              42.979              
C              42.766              12.065              44.497              
O              41.654              12.173              45.028              
C              43.022              10.603              42.471              
C              41.829              9.728               42.796              
C              41.931              8.358               42.16               
H              44.845              12.428              42.002              
H              42.08               12.463              42.588              
H              43.133              10.623              41.474              
H              43.838              10.183              42.879              
H              41.772              9.615               43.787              
H              41                  10.175              42.461              
O              42.953              7.681               42.277              
N              40.872              7.944               41.477              
H              40.871              7.039               41.009              
H              40.052              8.547               41.426              
N              43.89               11.99               45.21               
C              43.847              12.036              46.668              
C              45.197              11.613              47.246              
O              45.136              11.514              48.659              
H              44.756              11.9                44.66               
H              43.148              11.38               46.981              
H              45.444              10.726              46.869              
H              45.88               12.294              46.999              
H              45.155              12.43               49.058              
H              66.414              20.196              40.7097             
H              43.5598             13.0299             47.0285             
