232

C   49.588   20.981   34.386
O   50.52   20.887   33.579
N   49.785   21.035   35.706
C   51.132   20.995   36.268
C   51.809   19.658   35.994
O   53.023   19.609   35.75
C   51.068   21.279   37.768
C   52.372   21.263   38.563
C   53.372   22.263   37.993
C   52.082   21.556   40.027
H   48.925   21.105   36.274
H   51.68   21.723   35.838
H   50.658   22.19   37.889
H   50.459   20.596   38.182
H   52.766   20.343   38.525
H   52.983   23.183   38.034
H   54.215   22.233   38.53
H   53.573   22.028   37.042
H   51.463   20.859   40.392
H   52.937   21.545   40.547
H   51.654   22.457   40.11
N   51.042   18.563   36.031
C   51.582   17.253   35.666
C   52.226   17.319   34.29
O   53.358   16.866   34.084
C   50.477   16.181   35.718
C   50.988   14.847   35.17
C   49.954   16.015   37.135
H   50.068   18.721   36.33
H   52.293   17.013   36.332
H   49.739   16.475   35.118
H   50.548   14.098   35.662
H   50.769   14.784   34.198
H   51.977   14.796   35.295
H   49.79   15.045   37.316
H   50.631   16.367   37.781
H   49.099   16.524   37.234
N   51.522   17.92   33.333
C   52.014   17.949   31.963
C   53.128   18.976   31.779
O   54.092   18.712   31.055
C   50.85   18.148   30.993
C   49.807   17.07   31.091
C   50.144   15.744   30.859
C   48.497   17.374   31.425
C   49.193   14.742   30.954
C   47.541   16.376   31.518
C   47.89   15.06   31.283
H   50.635   18.345   33.638
H   52.421   17.044   31.776
H   50.42   19.009   31.207
H   51.214   18.139   30.076
H   51.083   15.506   30.622
H   48.239   18.325   31.602
H   49.459   13.786   30.781
H   46.585   16.619   31.758
H   47.202   14.335   31.351
N   53.029   20.137   32.441
C   54.12   21.11   32.396
C   55.429   20.484   32.863
O   56.475   20.651   32.224
C   53.792   22.319   33.276
C   52.566   23.114   32.884
C   52.201   24.073   34.012
C   50.706   24.325   34.076
N   50.237   24.512   35.481
H   52.153   20.273   32.96
H   54.233   21.427   31.447
H   53.667   21.989   34.22
H   54.589   22.936   33.261
H   52.761   23.642   32.067
H   51.805   22.496   32.731
H   52.496   23.676   34.877
H   52.665   24.941   33.857
H   50.49   25.149   33.547
H   50.224   23.543   33.672
H   49.895   25.444   35.593
H   49.506   23.86   35.674
H   51.0   24.356   36.106
N   55.392   19.778   33.996
C   56.596   19.127   34.503
C   57.085   18.058   33.537
O   58.296   17.889   33.344
C   56.324   18.518   35.878
C   56.027   19.562   36.937
H   54.474   19.737   34.459
H   57.314   19.83   34.554
H   55.538   17.909   35.803
H   57.13   18.001   36.158
O   56.407   20.727   36.809
N   55.357   19.14   38.003
H   55.083   18.181   38.077
H   55.125   19.782   38.736
N   56.153   17.325   32.922
C   56.522   16.316   31.935
C   57.3   16.937   30.782
O   58.373   16.449   30.407
C   55.265   15.614   31.422
S   55.554   14.464   30.057
H   55.18   17.531   33.2
H   57.116   15.638   32.384
H   54.862   15.105   32.181
H   54.624   16.315   31.111
H   56.457   14.046   30.159
N   56.777   18.028   30.212
C   57.434   18.659   29.072
C   58.762   19.294   29.466
O   59.671   19.401   28.634
C   56.512   19.711   28.456
C   55.151   19.185   28.061
C   55.0   17.903   27.543
C   54.015   19.967   28.214
C   53.756   17.421   27.184
C   52.767   19.493   27.858
C   52.644   18.22   27.344
O   51.403   17.746   26.99
H   55.902   18.367   30.636
H   57.62   17.947   28.38
H   56.383   20.443   29.123
H   56.954   20.074   27.638
H   55.808   17.32   27.428
H   54.102   20.89   28.59
H   53.663   16.495   26.81
H   51.957   20.071   27.972
H   50.705   18.387   27.305
N   58.893   19.722   30.721
C   60.151   20.31   31.163
C   61.232   19.248   31.317
O   62.377   19.455   30.903
C   59.938   21.058   32.478
C   61.184   21.723   33.055
C   61.645   22.852   32.148
C   60.908   22.224   34.46
H   58.066   19.605   31.318
H   60.456   20.975   30.47
H   59.266   21.771   32.318
H   59.608   20.408   33.15
H   61.911   21.042   33.133
H   60.918   23.535   32.067
H   62.462   23.281   32.535
H   61.86   22.487   31.241
H   60.647   21.455   35.047
H   61.731   22.659   34.831
H   60.162   22.892   34.439
N   60.89   18.1   31.9
C   61.899   17.081   32.153
C   62.151   16.172   30.96
O   63.284   15.712   30.773
C   61.524   16.233   33.371
C   62.645   15.365   33.855
C   63.657   15.903   34.634
C   62.703   14.023   33.515
C   64.705   15.115   35.078
C   63.751   13.226   33.957
C   64.751   13.776   34.739
H   59.896   18.005   32.143
H   62.77   17.569   32.338
H   61.273   16.848   34.1
H   60.772   15.649   33.111
H   63.633   16.869   34.881
H   61.984   13.623   32.947
H   65.43   15.525   35.646
H   63.777   12.247   33.702
H   65.509   13.206   35.061
N   61.129   15.9   30.153
C   61.252   14.982   29.027
C   61.276   15.773   27.728
O   60.255   16.377   27.36
C   60.079   14.002   29.03
C   60.018   13.177   30.301
O   59.247   13.48   31.21
N   60.83   12.127   30.368
H   60.244   16.394   30.393
H   62.139   14.526   29.111
H   59.234   14.521   28.948
H   60.182   13.385   28.255
H   61.443   11.923   29.602
H   60.831   11.543   31.177
N   62.396   15.799   27.006
C   62.475   16.616   25.789
C   61.488   16.167   24.722
O   61.085   15.003   24.658
C   63.92   16.41   25.318
C   64.669   16.009   26.549
C   63.695   15.202   27.362
H   62.342   17.596   26.012
H   63.964   15.69   24.62
H   64.29   17.259   24.933
H   65.475   15.461   26.307
H   64.973   16.822   27.056
H   63.718   14.237   27.109
H   63.868   15.297   28.342
N   61.097   17.124   23.88
C   60.239   16.831   22.741
C   60.846   15.715   21.902
O   62.052   15.699   21.638
C   60.089   18.094   21.888
C   59.285   17.902   20.616
C   57.793   17.791   20.867
O   57.344   18.099   21.993
O   57.069   17.402   19.929
H   61.451   18.072   24.105
H   59.33   16.552   23.063
H   59.626   18.77   22.437
H   60.993   18.389   21.63
H   59.431   18.684   20.036
H   59.576   17.065   20.187
N   60.004   14.765   21.499
C   60.428   13.63   20.715
C   60.669   12.361   21.507
O   60.715   11.278   20.912
H   59.013   14.919   21.803
H   59.728   13.44   19.989
H   61.286   13.872   20.207
N   60.827   12.461   22.826
C   61.041   11.276   23.643
C   59.712   10.594   23.958
O   58.636   11.181   23.826
C   61.781   11.627   24.936
O   60.993   12.536   25.718
C   63.122   12.267   24.618
H   60.785   13.422   23.201
H   61.612   10.628   23.128
H   61.917   10.775   25.485
H   63.827   11.903   25.231
H   63.379   12.068   23.669
H   63.063   13.261   24.74
H   61.017   13.456   25.313
N   59.807   9.332   24.388
H   60.768   9.005   24.576
H   58.9799   8.75955   24.5115
H   48.5843   21.0257   34.037
