394

N   6.587   16.032   9.221
C   7.644   15.016   8.936
C   8.789   15.614   8.12
O   8.557   16.415   7.21
C   7.051   13.815   8.192
C   5.987   13.082   8.953
H   5.7   15.58   9.247
H   8.008   14.7   9.818
H   6.654   14.133   7.322
H   7.792   13.165   7.98
H   6.775   16.459   10.101
H   6.595   16.721   8.501
N   4.652   13.392   8.899
C   6.077   11.952   9.693
C   3.968   12.487   9.573
N   4.807   11.598   10.065
H   4.259   14.179   8.422
H   6.918   11.465   9.926
H   2.975   12.478   9.693
N   10.017   15.22   8.455
C   11.203   15.619   7.695
C   11.216   14.905   6.349
O   10.514   13.908   6.167
C   12.482   15.282   8.468
O   12.681   13.878   8.561
H   10.06   14.608   9.297
H   11.144   16.604   7.523
H   13.26   15.688   7.995
H   12.409   15.659   9.388
H   12.11   13.51   9.293
N   12.018   15.405   5.412
C   12.145   14.748   4.107
C   12.732   13.339   4.236
O   12.348   12.445   3.481
C   12.974   15.591   3.13
C   12.312   16.901   2.714
C   10.966   16.711   2.028
O   10.018   17.449   2.361
O   10.844   15.82   1.161
H   12.524   16.263   5.673
H   11.238   14.693   3.668
H   13.823   15.815   3.575
H   13.112   15.056   2.316
H   12.158   17.439   3.525
H   12.907   17.359   2.076
N   13.642   13.145   5.191
C   14.155   11.808   5.509
C   13.039   10.869   5.97
O   12.959   9.73   5.511
C   15.238   11.882   6.588
C   15.898   10.546   6.887
C   16.967   10.683   7.956
N   17.854   9.522   7.994
C   17.544   8.327   8.5
N   16.343   8.087   9.029
N   18.448   7.35   8.471
H   13.951   14.005   5.681
H   14.579   11.42   4.68
H   15.942   12.513   6.279
H   14.82   12.215   7.426
H   15.211   9.902   7.213
H   16.329   10.196   6.059
H   17.503   11.499   7.757
H   16.513   10.779   8.838
H   18.784   9.632   7.604
H   15.649   8.805   9.033
H   16.141   7.19   9.419
H   19.343   7.512   8.054
H   18.232   6.458   8.864
N   12.195   11.347   6.882
C   11.069   10.548   7.381
C   10.068   10.19   6.278
O   9.521   9.085   6.277
C   10.367   11.263   8.54
C   11.185   11.239   9.827
C   10.637   12.136   10.927
O   10.014   13.176   10.624
O   10.845   11.801   12.112
H   12.396   12.311   7.203
H   11.421   9.697   7.801
H   10.244   12.199   8.284
H   9.526   10.797   8.714
H   11.188   10.314   10.172
H   12.098   11.551   9.618
N   9.843   11.114   5.342
C   8.988   10.848   4.183
C   9.581   9.769   3.276
O   8.856   8.887   2.818
C   8.747   12.12   3.368
C   7.937   13.196   4.075
C   7.884   14.453   3.219
C   7.186   15.609   3.917
N   7.07   16.787   3.01
H   10.319   12.022   5.504
H   8.086   10.533   4.51
H   9.639   12.508   3.125
H   8.263   11.864   2.527
H   7.011   12.865   4.22
H   8.369   13.414   4.943
H   8.819   14.732   3.0
H   7.39   14.247   2.375
H   6.271   15.317   4.195
H   7.714   15.868   4.726
H   7.064   16.474   2.061
H   6.221   17.274   3.209
H   7.849   17.395   3.158
N   10.887   9.848   3.014
C   11.578   8.82   2.223
C   11.448   7.44   2.859
O   11.12   6.466   2.178
C   13.064   9.155   2.041
C   13.339   10.26   1.035
C   14.798   10.273   0.605
N   15.708   10.569   1.711
C   15.984   11.787   2.186
N   15.416   12.878   1.671
N   16.841   11.917   3.196
H   11.363   10.679   3.408
H   11.165   8.793   1.303
H   13.427   9.441   2.924
H   13.531   8.331   1.732
H   12.777   10.119   0.224
H   13.13   11.144   1.446
H   15.018   9.374   0.23
H   14.905   10.969   -0.104
H   16.171   9.784   2.158
H   14.755   12.791   0.928
H   15.652   13.78   2.03
H   17.256   11.103   3.604
H   17.068   12.824   3.546
N   11.698   7.366   4.164
C   11.643   6.093   4.885
C   10.202   5.575   4.984
O   9.967   4.384   4.779
C   12.312   6.198   6.277
C   12.079   4.939   7.107
C   13.806   6.444   6.114
H   11.93   8.269   4.617
H   12.178   5.416   4.368
H   11.877   6.953   6.764
H   11.191   5.001   7.562
H   12.093   4.139   6.508
H   12.801   4.855   7.793
H   14.212   5.683   5.609
H   13.947   7.296   5.61
H   14.229   6.514   7.017
N   9.249   6.463   5.278
C   7.829   6.084   5.355
C   7.302   5.547   4.027
O   6.591   4.541   4.0
C   6.967   7.266   5.804
O   7.285   7.638   7.132
H   9.589   7.428   5.445
H   7.744   5.35   6.044
H   7.14   8.036   5.2
H   6.011   6.998   5.761
H   8.084   8.239   7.129
N   7.643   6.227   2.934
C   7.285   5.753   1.592
C   7.914   4.394   1.273
O   7.274   3.549   0.644
C   7.687   6.771   0.518
C   6.646   7.853   0.313
H   8.171   7.101   3.108
H   6.284   5.623   1.581
H   8.542   7.2   0.798
H   7.815   6.283   -0.342
O   6.88   9.021   0.618
N   5.489   7.468   -0.216
H   5.343   6.505   -0.449
H   4.765   8.137   -0.38
N   9.161   4.192   1.702
C   9.855   2.916   1.493
C   9.187   1.775   2.251
O   9.078   0.665   1.734
C   11.316   3.025   1.898
H   9.591   5.001   2.188
H   9.84   2.701   0.506
H   11.503   2.394   2.651
H   11.898   2.793   1.119
H   11.513   3.96   2.193
N   8.747   2.056   3.476
C   8.014   1.082   4.289
C   6.737   0.618   3.58
O   6.514   -0.583   3.432
C   7.71   1.661   5.696
C   6.59   0.907   6.407
C   8.98   1.663   6.534
H   8.966   3.02   3.805
H   8.603   0.277   4.42
H   7.395   2.603   5.571
H   5.714   1.344   6.203
H   6.573   -0.04   6.089
H   6.751   0.925   7.393
H   9.021   0.823   7.074
H   9.775   1.713   5.929
H   8.972   2.455   7.144
N   5.92   1.567   3.131
C   4.672   1.242   2.428
C   4.931   0.444   1.149
O   4.192   -0.49   0.835
C   3.88   2.513   2.105
C   3.351   3.254   3.325
C   2.458   2.398   4.21
O   1.648   1.612   3.673
O   2.572   2.509   5.449
H   6.232   2.538   3.315
H   4.072   0.709   3.04
H   4.482   3.126   1.622
H   3.105   2.252   1.556
H   4.12   3.541   3.869
H   2.814   4.018   3.015
N   5.984   0.818   0.426
C   6.436   0.067   -0.748
C   6.777   -1.392   -0.409
O   6.251   -2.314   -1.038
C   7.635   0.777   -1.391
C   8.354   -0.044   -2.419
C   7.778   -0.283   -3.662
C   9.606   -0.581   -2.145
C   8.441   -1.047   -4.611
C   10.275   -1.343   -3.088
C   9.692   -1.576   -4.325
H   6.456   1.683   0.763
H   5.662   0.038   -1.395
H   7.297   1.596   -1.831
H   8.275   0.997   -0.669
H   6.884   0.097   -3.876
H   10.029   -0.413   -1.253
H   8.009   -1.215   -5.505
H   11.186   -1.728   -2.871
H   10.169   -2.123   -5.012
N   7.629   -1.595   0.598
C   8.103   -2.94   0.965
C   7.012   -3.864   1.517
O   7.154   -5.088   1.454
C   9.255   -2.855   1.975
C   10.573   -2.235   1.495
C   11.541   -2.101   2.661
C   11.217   -3.039   0.38
H   7.927   -0.734   1.097
H   8.496   -3.375   0.133
H   8.938   -2.31   2.753
H   9.459   -3.785   2.283
H   10.385   -1.334   1.112
H   11.725   -3.005   3.048
H   12.398   -1.696   2.34
H   11.139   -1.514   3.364
H   10.595   -3.086   -0.403
H   12.072   -2.6   0.099
H   11.412   -3.966   0.703
N   5.941   -3.284   2.052
C   4.81   -4.059   2.568
C   3.881   -4.61   1.486
O   3.097   -5.523   1.762
C   3.998   -3.214   3.554
C   4.681   -2.933   4.891
C   3.928   -1.847   5.641
C   4.772   -4.201   5.726
H   5.974   -2.244   2.073
H   5.179   -4.846   3.1
H   3.813   -2.338   3.124
H   3.153   -3.697   3.745
H   5.617   -2.632   4.721
H   2.988   -2.146   5.809
H   4.38   -1.668   6.515
H   3.917   -1.008   5.095
H   5.303   -4.89   5.231
H   5.222   -3.997   6.597
H   3.852   -4.553   5.902
N   3.956   -4.063   0.274
C   3.095   -4.504   -0.824
C   3.359   -5.973   -1.159
O   4.509   -6.397   -1.243
C   3.306   -3.615   -2.052
C   2.474   -4.05   -3.241
O   2.903   -4.969   -3.966
O   1.394   -3.464   -3.455
H   4.665   -3.311   0.178
H   2.146   -4.443   -0.501
H   3.052   -2.686   -1.805
H   4.267   -3.657   -2.3
N   2.282   -6.732   -1.359
C   2.366   -8.188   -1.54
C   3.177   -8.61   -2.767
O   3.929   -9.584   -2.703
C   0.963   -8.797   -1.613
O   0.19   -8.177   -2.625
H   1.381   -6.211   -1.376
H   2.822   -8.575   -0.719
H   1.046   -9.768   -1.816
H   0.512   -8.667   -0.735
H   0.664   -7.361   -2.954
N   3.027   -7.88   -3.873
C   3.821   -8.144   -5.081
C   5.282   -7.755   -4.874
O   6.186   -8.456   -5.334
C   3.27   -7.383   -6.283
C   1.838   -7.739   -6.657
C   1.178   -6.591   -7.394
N   1.088   -5.391   -6.555
C   0.989   -4.137   -7.004
N   0.962   -3.866   -8.31
N   0.917   -3.131   -6.136
H   2.319   -7.128   -3.81
H   3.775   -9.128   -5.287
H   3.3   -6.407   -6.077
H   3.85   -7.578   -7.071
H   1.84   -8.534   -7.252
H   1.317   -7.922   -5.831
H   1.721   -6.384   -8.201
H   0.261   -6.874   -7.657
H   1.102   -5.524   -5.55
H   0.996   -4.612   -8.973
H   0.906   -2.919   -8.621
H   0.918   -3.323   -5.153
H   0.861   -2.19   -6.463
N   5.501   -6.636   -4.184
C   6.852   -6.162   -3.866
C   7.566   -7.157   -2.949
O   8.754   -7.421   -3.128
C   6.823   -4.748   -3.236
C   8.21   -4.306   -2.779
C   6.267   -3.737   -4.233
H   4.639   -6.131   -3.892
H   7.371   -6.103   -4.723
H   6.248   -4.794   -2.421
H   8.766   -5.112   -2.577
H   8.645   -3.773   -3.504
H   8.125   -3.744   -1.957
H   5.711   -4.216   -4.911
H   5.705   -3.07   -3.746
H   7.026   -3.271   -4.687
N   6.844   -7.728   -1.988
C   7.413   -8.765   -1.119
C   7.967   -9.974   -1.894
O   8.947   -10.583   -1.462
C   6.387   -9.212   -0.074
C   6.146   -8.164   1.004
C   5.112   -8.635   2.004
N   5.649   -9.687   2.866
C   4.92   -10.515   3.614
N   3.588   -10.445   3.628
N   5.533   -11.433   4.357
H   5.871   -7.387   -1.907
H   8.172   -8.358   -0.583
H   5.528   -9.384   -0.535
H   6.726   -10.033   0.364
H   6.997   -7.989   1.49
H   5.814   -7.326   0.581
H   4.842   -7.86   2.564
H   4.331   -8.99   1.502
H   6.656   -9.796   2.898
H   3.118   -9.776   3.055
H   3.063   -11.064   4.211
H   6.53   -11.509   4.335
H   4.997   -12.047   4.936
N   7.357   -10.297   -3.037
C   7.839   -11.384   -3.908
C   8.993   -10.991   -4.848
O   9.576   -11.858   -5.504
C   6.67   -11.968   -4.713
C   5.663   -12.703   -3.84
C   4.639   -13.47   -4.658
N   3.819   -12.587   -5.491
C   2.643   -12.05   -5.148
N   2.081   -12.279   -3.959
N   2.011   -11.263   -6.018
H   6.52   -9.723   -3.26
H   8.157   -12.151   -3.317
H   6.202   -11.222   -5.165
H   7.037   -12.61   -5.37
H   6.145   -13.354   -3.254
H   5.174   -12.042   -3.27
H   5.127   -14.113   -5.244
H   4.047   -13.967   -4.027
H   4.175   -12.36   -6.417
H   2.56   -12.853   -3.294
H   1.196   -11.88   -3.739
H   2.425   -11.065   -6.906
H   1.123   -10.87   -5.781
N   9.319   -9.7   -4.905
C   10.417   -9.179   -5.716
C   10.175   -7.684   -6.029
O   8.917   -7.547   -6.699
C   11.275   -7.082   -6.896
H   8.712   -9.082   -4.31
H   10.468   -9.705   -6.563
H   10.128   -7.171   -5.152
H   10.996   -6.174   -7.215
H   12.119   -6.998   -6.362
H   11.443   -7.672   -7.688
H   8.168   -7.86   -6.105
H   11.3635   -9.31257   -5.17023
