247

C   12.12   5.787   7.199
C   11.542   6.954   7.995
O   11.686   6.947   9.23
C   13.51   6.142   6.655
C   14.294   4.948   6.1
C   15.684   5.373   5.652
C   14.38   3.87   7.158
H   12.268   5.008   7.839
H   13.392   6.789   5.917
H   14.038   6.527   7.395
H   13.795   4.567   5.321
H   16.185   5.752   6.43
H   16.177   4.58   5.294
H   15.607   6.067   4.936
H   13.458   3.572   7.415
H   14.892   3.085   6.802
H   14.848   4.227   7.969
N   10.917   7.973   7.393
C   10.3   9.028   8.216
C   9.127   8.55   9.049
O   8.634   9.33   9.872
C   9.841   10.067   7.178
C   10.69   9.799   5.954
C   10.846   8.299   5.957
H   11.007   9.469   8.805
H   8.869   9.949   6.964
H   9.993   10.997   7.515
H   10.22   10.11   5.135
H   11.571   10.253   6.041
H   10.061   7.85   5.533
H   11.685   8.018   5.491
N   8.665   7.309   8.857
C   7.416   6.819   9.421
C   7.593   5.682   10.41
O   6.599   5.251   11.007
C   6.475   6.361   8.299
C   6.174   7.445   7.317
C   5.214   8.395   7.603
C   6.897   7.55   6.136
C   4.954   9.417   6.709
C   6.643   8.575   5.235
C   5.667   9.497   5.521
H   9.291   6.715   8.257
H   7.002   7.594   9.935
H   6.918   5.622   7.821
H   5.63   6.076   8.717
H   4.704   8.349   8.457
H   7.611   6.879   5.932
H   4.245   10.101   6.923
H   7.178   8.63   4.378
H   5.46   10.238   4.874
N   8.827   5.235   10.642
C   9.09   4.065   11.469
C   9.067   4.358   12.962
O   9.083   3.416   13.765
C   10.444   3.466   11.102
C   10.44   2.804   9.747
C   11.771   2.163   9.459
N   11.737   1.41   8.215
C   12.702   0.586   7.816
N   13.779   0.406   8.57
N   12.584   -0.059   6.665
H   9.58   5.792   10.183
H   8.383   3.36   11.268
H   11.114   4.197   11.092
H   10.677   2.784   11.783
H   9.738   2.097   9.722
H   10.261   3.486   9.042
H   12.458   2.881   9.39
H   11.992   1.547   10.21
H   10.935   1.518   7.617
H   13.876   0.864   9.449
H   14.513   -0.206   8.249
H   11.758   0.061   6.108
H   13.313   -0.665   6.35
N   9.036   5.621   13.347
C   9.026   6.04   14.736
C   8.158   7.285   14.823
O   7.972   7.975   13.817
C   10.448   6.329   15.251
C   11.252   7.369   14.458
C   11.651   6.901   13.062
H   9.019   6.31   12.548
H   8.592   5.327   15.275
H   10.384   6.652   16.203
H   10.972   5.467   15.246
H   10.696   8.197   14.369
H   12.084   7.584   14.972
O   12.173   5.792   12.883
N   11.383   7.733   12.062
H   11.633   7.495   11.107
H   10.921   8.617   12.268
N   7.591   7.578   15.994
C   6.797   8.806   16.125
C   7.618   10.025   15.748
O   8.825   10.08   15.983
C   6.412   8.821   17.611
C   6.461   7.367   18.014
C   7.634   6.82   17.253
H   5.96   8.747   15.568
H   7.067   9.356   18.142
H   5.494   9.191   17.737
H   6.599   7.287   18.999
H   5.614   6.909   17.753
H   8.493   6.986   17.734
H   7.534   5.84   17.078
N   6.949   11.004   15.131
C   7.599   12.27   14.826
C   8.155   12.872   16.108
O   7.448   12.978   17.116
C   6.604   13.234   14.165
C   7.253   14.607   13.963
C   6.1   12.663   12.845
H   5.968   10.786   14.901
H   8.367   12.089   14.21
H   5.844   13.367   14.79
H   8.236   14.49   13.832
H   6.856   15.043   13.158
H   7.086   15.172   14.769
H   5.128   12.447   12.93
H   6.233   13.34   12.122
H   6.612   11.833   12.629
N   9.43   13.266   16.075
C   10.078   13.973   17.179
C   10.41   15.387   16.723
O   11.471   15.618   16.12
C   11.337   13.233   17.637
C   11.996   13.877   18.855
O   11.621   15.005   19.245
O   12.904   13.242   19.425
H   9.928   13.024   15.186
H   9.408   14.05   17.915
H   11.081   12.303   17.873
H   11.988   13.236   16.888
N   9.532   16.365   16.979
C   9.762   17.727   16.464
C   11.04   18.359   16.972
O   11.675   19.127   16.24
C   8.525   18.496   16.952
C   7.485   17.441   17.157
C   8.228   16.235   17.647
H   9.739   17.722   15.445
H   8.725   18.975   17.809
H   8.231   19.162   16.265
H   6.805   17.745   17.833
H   7.009   17.245   16.292
H   8.339   16.249   18.639
H   7.776   15.387   17.372
N   11.426   18.063   18.213
C   12.692   18.554   18.745
C   13.869   18.036   17.924
O   14.711   18.815   17.461
C   12.822   18.14   20.211
C   12.968   19.3   21.174
C   14.33   19.959   21.084
H   10.767   17.472   18.747
H   12.69   19.559   18.677
H   12.005   17.618   20.47
H   13.629   17.549   20.307
H   12.27   19.984   20.964
H   12.838   18.964   22.107
O   15.346   19.287   20.891
N   14.359   21.281   21.217
H   15.238   21.791   21.182
H   13.481   21.78   21.355
N   13.935   16.719   17.72
C   15.054   16.147   16.979
C   15.06   16.602   15.526
O   16.127   16.822   14.943
C   15.004   14.623   17.049
C   16.054   13.902   16.205
C   17.441   14.084   16.801
C   15.706   12.423   16.063
H   13.161   16.171   18.115
H   15.914   16.452   17.412
H   15.147   14.355   17.994
H   14.113   14.33   16.729
H   16.039   14.277   15.277
H   17.459   13.708   17.728
H   18.114   13.606   16.236
H   17.667   15.058   16.833
H   14.815   12.332   15.619
H   16.403   11.969   15.508
H   15.672   12.001   16.969
N   13.887   16.734   14.917
C   13.809   17.008   13.488
C   13.83   18.494   13.158
O   13.919   18.849   11.975
C   12.546   16.359   12.906
C   12.504   14.833   12.97
C   11.102   14.343   12.698
C   13.48   14.245   11.964
H   13.059   16.628   15.528
H   14.606   16.57   13.033
H   11.766   16.701   13.417
H   12.483   16.621   11.951
H   12.793   14.54   13.88
H   10.809   14.64   11.787
H   11.077   13.342   12.741
H   10.472   14.716   13.383
H   14.407   14.558   12.174
H   13.448   13.246   12.01
H   13.231   14.542   11.041
N   13.773   19.366   14.162
C   13.798   20.794   13.905
C   12.503   21.337   13.35
O   12.52   22.288   12.561
H   13.712   18.947   15.104
H   14.025   21.286   14.771
H   14.557   21.003   13.254
N   11.375   20.758   13.742
C   10.074   21.19   13.243
C   9.16   21.474   14.432
O   8.189   20.743   14.665
C   9.481   20.145   12.286
C   9.504   18.744   12.906
C   10.257   20.132   10.968
C   8.775   17.719   12.078
H   11.496   19.983   14.424
H   10.223   22.062   12.784
H   8.529   20.389   12.114
H   10.454   18.465   13.013
H   9.078   18.797   13.806
H   9.832   19.483   10.341
H   10.241   21.045   10.567
H   11.2   19.86   11.143
H   9.198   17.656   11.174
H   8.823   16.828   12.53
H   7.817   17.989   11.978
N   9.405   22.546   15.191
C   8.651   22.751   16.439
C   7.171   23.071   16.24
O   6.417   23.014   17.224
C   9.39   23.921   17.108
C   10.031   24.663   15.972
C   10.394   23.613   14.948
H   8.761   21.942   17.053
H   8.745   24.509   17.6
H   10.081   23.582   17.749
H   9.39   25.333   15.584
H   10.851   25.15   16.29
H   10.308   23.967   14.018
H   11.323   23.271   15.091
N   6.723   23.398   15.024
H   7.446   23.442   14.289
H   11.4969   5.45144   6.40414
H   5.74047   23.584   14.863
