276

C   1.092   -1.05   4.023
O   2.173   -1.038   4.627
N   0.026   -0.395   4.475
C   0.16   0.486   5.625
C   0.466   -0.32   6.883
O   1.24   0.12   7.745
C   -1.12   1.303   5.783
C   -1.216   2.05   7.09
C   -2.157   3.229   7.0
O   -2.738   3.44   5.909
O   -2.321   3.934   8.017
H   -0.848   -0.56   3.967
H   0.901   1.147   5.464
H   -1.142   1.965   5.053
H   -1.881   0.678   5.734
H   -1.569   1.44   7.773
H   -0.327   2.397   7.319
N   -0.113   -1.519   6.98
C   0.144   -2.391   8.118
C   1.626   -2.732   8.231
O   2.163   -2.819   9.34
C   -0.692   -3.664   7.998
C   -2.168   -3.467   8.31
C   -2.933   -4.769   8.283
O   -2.312   -5.825   8.555
O   -4.147   -4.734   7.972
H   -0.742   -1.764   6.196
H   -0.161   -1.94   8.967
H   -0.624   -3.981   7.069
H   -0.337   -4.319   8.64
H   -2.243   -3.093   9.213
H   -2.551   -2.88   7.625
N   2.307   -2.935   7.099
C   3.731   -3.235   7.182
C   4.532   -1.991   7.528
O   5.515   -2.081   8.268
C   4.235   -3.889   5.894
C   4.224   -5.408   5.984
O   3.86   -5.934   7.059
O   4.548   -6.09   4.989
H   1.773   -2.865   6.236
H   3.854   -3.888   7.94
H   3.64   -3.611   5.154
H   5.164   -3.587   5.737
N   4.127   -0.816   7.03
C   4.802   0.399   7.468
C   4.667   0.578   8.976
O   5.633   0.913   9.666
C   4.247   1.618   6.745
C   4.714   2.918   7.324
C   3.882   3.676   8.127
C   5.991   3.381   7.061
C   4.301   4.875   8.653
C   6.428   4.58   7.599
C   5.576   5.33   8.391
H   3.359   -0.853   6.365
H   5.782   0.277   7.277
H   4.546   1.577   5.804
H   3.261   1.589   6.812
H   2.958   3.346   8.331
H   6.604   2.846   6.479
H   3.673   5.418   9.228
H   7.369   4.903   7.409
H   5.884   6.203   8.775
N   3.465   0.353   9.504
C   3.238   0.509   10.935
C   4.14   -0.406   11.759
O   4.581   -0.024   12.847
C   1.761   0.249   11.227
C   0.876   1.347   10.678
H   2.736   0.068   8.832
H   3.485   1.458   11.175
H   1.503   -0.611   10.802
H   1.639   0.203   12.212
O   1.35   2.449   10.416
N   -0.413   1.059   10.502
H   -0.745   0.142   10.742
H   -1.037   1.742   10.139
N   4.446   -1.601   11.247
C   5.362   -2.5   11.947
C   6.767   -1.926   12.027
O   7.454   -2.099   13.041
C   5.414   -3.864   11.259
C   4.291   -4.856   11.517
C   4.606   -6.142   10.773
C   4.12   -5.104   13.019
H   3.995   -1.823   10.348
H   5.018   -2.637   12.887
H   5.446   -3.7   10.264
H   6.276   -4.309   11.532
H   3.437   -4.48   11.181
H   5.474   -6.516   11.102
H   3.877   -6.809   10.931
H   4.677   -5.954   9.792
H   3.901   -4.241   13.473
H   3.378   -5.758   13.163
H   4.971   -5.473   13.391
N   7.237   -1.269   10.961
C   8.559   -0.653   11.032
C   8.63   0.26   12.25
O   9.614   0.258   13.002
C   8.873   0.114   9.728
C   8.996   -0.85   8.559
C   10.131   0.941   9.919
C   9.052   -0.113   7.199
H   6.624   -1.241   10.147
H   9.207   -1.396   11.193
H   8.112   0.729   9.549
H   9.825   -1.38   8.655
H   8.208   -1.449   8.547
H   10.31   1.475   9.094
H   10.011   1.56   10.694
H   10.907   0.336   10.096
H   9.843   0.488   7.2
H   9.132   -0.791   6.478
H   8.216   0.412   7.092
N   7.556   1.01   12.495
C   7.536   1.967   13.593
C   7.349   1.25   14.923
O   8.153   1.402   15.853
C   6.431   3.015   13.353
C   6.341   3.991   14.532
C   6.679   3.764   12.043
H   6.759   0.855   11.852
H   8.424   2.437   13.616
H   5.56   2.536   13.311
H   6.367   4.927   14.186
H   5.485   3.836   15.022
H   7.113   3.837   15.146
H   7.035   4.674   12.25
H   7.343   3.255   11.497
H   5.818   3.842   11.544
N   6.309   0.424   15.012
C   5.962   -0.181   16.296
C   7.016   -1.184   16.75
O   7.254   -1.314   17.957
C   4.582   -0.826   16.205
O   4.564   -1.91   15.301
H   5.796   0.258   14.138
H   5.917   0.555   16.985
H   4.32   -1.154   17.113
H   3.925   -0.136   15.899
H   4.578   -1.565   14.362
N   7.667   -1.892   15.814
C   8.789   -2.739   16.204
C   9.864   -1.895   16.866
O   10.382   -2.243   17.933
C   9.376   -3.481   14.99
C   8.47   -4.586   14.485
H   7.32   -1.786   14.859
H   8.449   -3.381   16.895
H   9.513   -2.819   14.259
H   10.247   -3.879   15.262
O   7.554   -5.015   15.194
N   8.717   -5.06   13.257
H   9.48   -4.676   12.734
H   8.151   -5.78   12.876
N   10.192   -0.761   16.247
C   11.267   0.084   16.751
C   10.925   0.651   18.125
O   11.752   0.619   19.043
C   11.555   1.203   15.752
S   12.941   2.233   16.25
H   9.633   -0.543   15.406
H   12.096   -0.48   16.844
H   11.767   0.789   14.876
H   10.746   1.773   15.685
H   12.721   3.197   16.09
N   9.713   1.18   18.282
C   9.286   1.688   19.588
C   9.282   0.589   20.65
O   9.697   0.811   21.797
C   7.895   2.311   19.459
C   7.7   3.492   18.52
C   6.187   3.842   18.448
C   8.527   4.699   18.914
H   9.125   1.2   17.438
H   9.932   2.407   19.878
H   7.264   1.582   19.158
H   7.611   2.61   20.38
H   8.012   3.253   17.61
H   5.871   4.077   19.362
H   6.068   4.615   17.832
H   5.693   3.049   18.106
H   9.5   4.46   18.903
H   8.364   5.446   18.267
H   8.271   4.998   19.835
N   8.832   -0.613   20.282
C   8.77   -1.711   21.244
C   10.161   -2.144   21.698
O   10.386   -2.371   22.891
C   8.015   -2.884   20.623
C   7.774   -4.083   21.511
C   6.721   -4.968   20.852
C   6.897   -6.423   21.211
N   5.983   -7.29   20.409
H   8.544   -0.692   19.297
H   8.247   -1.406   22.053
H   7.119   -2.542   20.304
H   8.534   -3.19   19.81
H   8.611   -4.6   21.604
H   7.435   -3.783   22.389
H   5.819   -4.667   21.155
H   6.796   -4.868   19.862
H   7.844   -6.696   21.032
H   6.695   -6.552   22.184
H   5.265   -6.726   20.004
H   6.506   -7.739   19.686
H   5.574   -7.978   21.006
N   11.112   -2.259   20.766
C   12.396   -2.863   21.111
C   13.314   -1.896   21.842
O   14.058   -2.317   22.734
C   13.098   -3.397   19.857
C   14.475   -3.982   20.139
C   14.609   -5.23   20.742
C   15.63   -3.275   19.827
C   15.856   -5.765   21.011
C   16.889   -3.803   20.098
C   16.992   -5.048   20.693
O   18.229   -5.592   20.967
H   10.869   -1.903   19.838
H   12.219   -3.652   21.721
H   12.534   -4.113   19.462
H   13.208   -2.646   19.216
H   13.787   -5.749   20.986
H   15.558   -2.376   19.401
H   15.934   -6.672   21.435
H   17.71   -3.286   19.865
H   18.128   -6.573   21.12
N   13.258   -0.611   21.512
C   14.244   0.354   21.975
C   13.73   1.151   23.163
O   12.541   1.473   23.237
C   14.611   1.301   20.837
C   15.334   0.593   19.73
H   12.453   -0.357   20.898
H   15.046   -0.169   22.294
H   13.772   1.696   20.476
H   15.199   2.016   21.203
O   16.515   0.289   19.861
N   14.629   0.3   18.636
H   13.663   0.563   18.591
H   15.059   -0.174   17.874
N   14.632   1.452   24.099
C   14.306   2.38   25.169
C   13.909   3.73   24.583
O   14.238   4.071   23.439
C   15.485   2.541   26.131
H   15.544   0.983   23.995
H   13.529   2.018   25.691
H   15.415   1.859   26.856
H   16.339   2.412   25.631
H   15.464   3.457   26.528
N   13.154   4.491   25.371
C   12.596   5.736   24.863
C   11.569   6.273   25.856
C   10.266   5.524   25.796
C   9.195   6.227   26.605
C   8.776   7.532   25.974
N   7.762   8.227   26.829
H   13.008   4.136   26.324
H   12.098   5.544   24.004
H   11.947   6.185   26.77
H   11.401   7.229   25.64
H   9.961   5.462   24.844
H   10.394   4.602   26.163
H   8.397   5.63   26.669
H   9.551   6.412   27.519
H   9.574   8.124   25.874
H   8.374   7.354   25.077
H   7.414   7.586   27.51
H   8.195   9.003   27.284
H   7.013   8.548   26.253
H   0.956591   -1.62793   3.14005
H   13.3752   6.47351   24.6583
