278

C   -17.247   -10.551   16.353
C   -16.821   -9.196   16.888
O   -17.084   -8.869   18.052
C   -16.124   -11.583   16.461
C   -16.474   -13.065   16.256
C   -15.2   -13.894   16.152
C   -17.347   -13.564   17.403
H   -18.017   -10.886   16.908
H   -15.426   -11.35   15.776
H   -15.718   -11.501   17.376
H   -17.001   -13.158   15.415
H   -14.669   -13.796   16.993
H   -15.438   -14.856   16.019
H   -14.657   -13.575   15.375
H   -18.192   -13.029   17.435
H   -17.568   -14.529   17.258
H   -16.853   -13.461   18.267
N   -16.154   -8.394   16.068
C   -15.779   -7.041   16.459
C   -17.013   -6.195   16.733
O   -17.096   -5.488   17.751
C   -14.867   -6.413   15.386
C   -13.515   -7.114   15.399
C   -14.632   -4.915   15.63
C   -12.611   -6.742   14.17
H   -15.927   -8.806   15.142
H   -15.288   -7.125   17.331
H   -15.288   -6.565   14.503
H   -13.018   -6.865   16.22
H   -13.653   -8.096   15.375
H   -14.049   -4.554   14.907
H   -15.509   -4.442   15.624
H   -14.189   -4.794   16.514
H   -12.457   -5.764   14.192
H   -11.759   -7.239   14.259
H   -13.094   -7.008   13.348
N   -18.011   -6.277   15.864
C   -19.195   -5.469   16.074
C   -19.948   -5.899   17.328
O   -20.546   -5.056   17.996
C   -20.071   -5.525   14.817
C   -19.421   -4.892   13.58
C   -20.49   -4.585   12.554
N   -19.997   -4.263   11.216
C   -19.405   -3.122   10.872
N   -19.168   -2.171   11.773
N   -19.037   -2.94   9.609
H   -17.874   -6.922   15.083
H   -18.92   -4.503   16.183
H   -20.259   -6.477   14.608
H   -20.915   -5.035   15.001
H   -18.98   -4.049   13.841
H   -18.78   -5.532   13.188
H   -21.102   -5.387   12.491
H   -21.036   -3.806   12.897
H   -20.115   -4.963   10.494
H   -19.416   -2.312   12.73
H   -18.738   -1.312   11.489
H   -19.186   -3.66   8.932
H   -18.607   -2.079   9.332
N   -19.944   -7.198   17.642
C   -20.664   -7.715   18.811
C   -20.254   -7.0   20.091
O   -21.079   -6.823   21.0
C   -20.362   -9.212   18.937
C   -21.244   -10.025   19.904
C   -21.661   -11.382   19.347
O   -22.382   -12.146   19.995
N   -21.2   -11.686   18.134
H   -19.396   -7.799   16.998
H   -21.648   -7.547   18.664
H   -20.445   -9.638   18.022
H   -19.401   -9.325   19.238
H   -20.731   -10.171   20.749
H   -22.067   -9.493   20.101
H   -21.425   -12.578   17.705
H   -20.621   -11.008   17.646
N   -18.985   -6.602   20.195
C   -18.492   -5.98   21.411
C   -18.83   -4.513   21.564
O   -18.555   -3.932   22.61
H   -18.405   -6.773   19.355
H   -18.858   -6.494   22.221
H   -17.473   -6.095   21.455
N   -19.377   -3.867   20.556
C   -19.814   -2.499   20.733
C   -18.664   -1.517   20.786
O   -17.83   -1.461   19.869
H   -19.462   -4.394   19.677
H   -20.438   -2.242   19.971
H   -20.356   -2.426   21.591
N   -18.605   -0.725   21.859
C   -17.568   0.291   21.971
C   -16.292   -0.227   22.618
O   -15.291   0.49   22.639
C   -18.068   1.512   22.72
C   -19.118   2.271   21.963
H   -19.331   -0.893   22.57
H   -17.326   0.576   21.027
H   -18.454   1.212   23.593
H   -17.291   2.119   22.89
O   -19.14   2.287   20.734
N   -20.016   2.904   22.698
H   -19.975   2.871   23.696
H   -20.751   3.427   22.253
N   -16.264   -1.486   23.003
C   -15.106   -2.084   23.631
C   -14.591   -3.174   22.722
O   -15.367   -3.98   22.192
C   -15.474   -2.737   24.967
C   -14.341   -3.53   25.608
C   -14.904   -4.488   26.643
N   -13.883   -5.115   27.49
C   -13.214   -4.464   28.437
N   -12.323   -5.107   29.184
N   -13.436   -3.166   28.643
H   -17.15   -2.016   22.816
H   -14.397   -1.39   23.739
H   -15.744   -2.018   25.601
H   -16.235   -3.36   24.811
H   -13.874   -4.058   24.914
H   -13.72   -2.909   26.063
H   -15.542   -3.978   27.226
H   -15.411   -5.207   26.158
H   -13.682   -6.084   27.345
H   -12.127   -6.072   29.037
H   -11.835   -4.609   29.912
H   -14.098   -2.685   28.063
H   -12.95   -2.682   29.362
N   -13.275   -3.203   22.553
C   -12.665   -4.23   21.74
C   -11.31   -4.59   22.334
O   -10.411   -3.744   22.389
C   -12.56   -3.74   20.289
C   -11.696   -4.569   19.354
C   -12.242   -5.976   19.178
C   -11.56   -3.883   18.0
H   -12.753   -2.455   23.036
H   -13.242   -5.047   21.756
H   -13.484   -3.721   19.911
H   -12.185   -2.816   20.31
H   -10.763   -4.621   19.728
H   -13.165   -5.932   18.794
H   -11.649   -6.491   18.558
H   -12.274   -6.437   20.066
H   -11.136   -2.985   18.122
H   -10.989   -4.442   17.399
H   -12.466   -3.771   17.59
N   -11.144   -5.857   22.683
C   -9.883   -6.388   23.167
C   -9.29   -7.196   22.022
O   -9.879   -8.198   21.583
C   -10.074   -7.238   24.438
C   -8.744   -7.789   24.912
C   -10.767   -6.422   25.558
H   -12.008   -6.446   22.579
H   -9.273   -5.631   23.357
H   -10.646   -8.016   24.196
H   -8.147   -7.035   25.191
H   -8.891   -8.4   25.691
H   -8.307   -8.299   24.17
H   -10.967   -7.034   26.317
H   -10.15   -5.698   25.85
H   -11.608   -6.035   25.193
N   -8.135   -6.775   21.516
C   -7.539   -7.403   20.339
C   -6.115   -7.837   20.645
O   -5.272   -7.007   21.002
C   -7.551   -6.454   19.141
C   -8.864   -6.455   18.396
S   -8.773   -5.762   16.737
C   -7.933   -4.207   17.025
H   -7.702   -5.977   22.019
H   -8.075   -8.222   20.117
H   -7.364   -5.52   19.465
H   -6.819   -6.724   18.506
H   -9.221   -7.426   18.365
H   -9.564   -5.946   18.964
H   -7.172   -4.112   16.381
H   -8.574   -3.449   16.895
H   -7.579   -4.184   17.961
N   -5.845   -9.129   20.478
C   -4.489   -9.645   20.524
C   -3.936   -9.675   19.109
O   -4.626   -10.11   18.171
C   -4.46   -11.035   21.161
C   -3.104   -11.549   21.409
C   -3.169   -12.812   22.32
C   -4.008   -12.631   23.626
N   -3.274   -12.96   24.872
H   -6.683   -9.727   20.314
H   -3.924   -9.036   21.078
H   -4.961   -10.978   22.028
H   -4.948   -11.657   20.543
H   -2.664   -11.823   20.558
H   -2.545   -10.874   21.882
H   -3.576   -13.559   21.794
H   -2.237   -13.059   22.585
H   -4.32   -11.671   23.657
H   -4.826   -13.219   23.547
H   -3.289   -13.95   25.017
H   -2.326   -12.649   24.793
H   -3.711   -12.503   25.648
N   -2.71   -9.168   18.945
C   -2.09   -9.058   17.627
C   -0.641   -9.526   17.677
O   -0.013   -9.615   18.742
C   -2.141   -7.622   17.036
C   -3.577   -7.08   16.968
C   -1.237   -6.676   17.823
H   -2.247   -8.865   19.824
H   -2.589   -9.66   16.995
H   -1.806   -7.671   16.097
H   -4.214   -7.847   16.925
H   -3.759   -6.534   17.783
H   -3.674   -6.513   16.153
H   -1.39   -6.814   18.8
H   -0.283   -6.872   17.599
H   -1.456   -5.733   17.576
N   -0.102   -9.796   16.502
C   1.323   -10.049   16.341
C   1.844   -9.125   15.248
O   1.193   -8.955   14.213
C   1.608   -11.525   16.002
C   1.171   -12.405   17.143
C   0.893   -11.939   14.763
H   -0.777   -9.813   15.705
H   1.783   -9.811   17.192
H   2.592   -11.625   15.908
H   1.455   -12.001   18.015
H   0.173   -12.501   17.138
H   1.587   -13.313   17.053
H   1.055   -12.914   14.579
H   -0.096   -11.789   14.867
H   1.221   -11.403   13.978
N   2.988   -8.495   15.492
C   3.644   -7.684   14.473
C   4.574   -8.596   13.687
O   5.531   -9.145   14.242
C   4.419   -6.528   15.098
O   3.556   -5.619   15.765
H   3.365   -8.628   16.449
H   2.948   -7.342   13.85
H   5.072   -6.895   15.757
H   4.906   -6.039   14.377
H   2.818   -5.349   15.149
N   4.275   -8.778   12.399
C   5.163   -9.533   11.525
C   6.46   -8.79   11.252
O   7.378   -9.365   10.656
C   4.433   -9.879   10.21
C   4.134   -8.609   9.405
C   5.237   -10.877   9.389
H   3.388   -8.349   12.091
H   5.393   -10.403   11.988
H   3.555   -10.282   10.446
H   4.974   -8.08   9.303
H   3.785   -8.865   8.506
H   3.451   -8.066   9.89
H   4.984   -10.791   8.425
H   6.212   -10.686   9.5
H   5.037   -11.803   9.708
N   6.558   -7.529   11.675
C   7.764   -6.72   11.48
C   8.984   -7.308   12.188
O   8.942   -7.643   13.374
C   7.569   -5.268   11.992
O   6.713   -5.269   13.141
C   6.978   -4.374   10.908
O   10.052   -7.442   11.583
H   5.704   -7.168   12.156
H   7.963   -6.68   10.488
H   8.478   -4.898   12.269
H   7.706   -3.835   10.479
H   6.531   -4.938   10.211
H   6.303   -3.753   11.312
H   6.435   -6.208   13.369
H   -17.5651   -10.4731   15.3456
