368

C   -1.297   -10.542   -2.306
O   -0.08   -10.664   -2.429
N   -2.019   -11.324   -1.51
C   -1.441   -12.435   -0.776
C   -1.375   -13.702   -1.611
O   -0.922   -14.733   -1.103
C   -2.257   -12.72   0.494
H   -3.032   -11.069   -1.461
H   -0.499   -12.186   -0.495
H   -3.22   -12.534   0.313
H   -2.14   -13.677   0.75
H   -1.932   -12.131   1.231
N   -1.825   -13.647   -2.868
C   -1.752   -14.777   -3.78
C   -2.971   -15.681   -3.832
O   -2.89   -16.756   -4.437
H   -2.232   -12.721   -3.134
H   -1.558   -14.426   -4.73
H   -0.927   -15.346   -3.539
N   -4.075   -15.325   -3.173
C   -5.28   -16.138   -3.214
C   -6.024   -15.902   -4.52
O   -6.014   -14.792   -5.071
C   -6.192   -15.757   -2.05
C   -5.614   -16.047   -0.675
C   -6.484   -15.524   0.425
C   -5.411   -17.539   -0.507
H   -3.996   -14.437   -2.642
H   -5.018   -17.106   -3.168
H   -6.364   -14.783   -2.105
H   -7.032   -16.273   -2.139
H   -4.698   -15.626   -0.614
H   -7.393   -15.949   0.38
H   -6.075   -15.731   1.319
H   -6.588   -14.528   0.341
H   -4.778   -17.875   -1.207
H   -5.03   -17.728   0.4
H   -6.289   -18.012   -0.601
N   -6.7   -16.957   -4.997
C   -7.409   -16.938   -6.268
C   -8.706   -17.738   -6.137
O   -8.869   -18.588   -5.251
C   -6.529   -17.522   -7.369
C   -5.252   -16.706   -7.669
C   -5.462   -15.305   -8.203
N   -4.301   -14.537   -8.62
C   -3.592   -13.748   -7.832
N   -3.903   -13.617   -6.53
N   -2.595   -13.069   -8.384
H   -6.67   -17.796   -4.37
H   -7.641   -15.993   -6.501
H   -6.241   -18.435   -7.097
H   -7.058   -17.566   -8.211
H   -4.705   -16.643   -6.816
H   -4.694   -17.222   -8.342
H   -6.112   -15.371   -8.995
H   -5.964   -14.774   -7.482
H   -4.013   -14.612   -9.59
H   -4.662   -14.132   -6.146
H   -3.365   -13.001   -5.957
H   -2.37   -13.16   -9.349
H   -2.046   -12.442   -7.81
N   -9.663   -17.405   -6.993
C   -10.88   -18.196   -7.162
C   -10.548   -19.671   -7.265
O   -9.639   -20.06   -7.994
C   -11.624   -17.766   -8.436
O   -11.917   -16.357   -8.374
C   -12.89   -18.503   -8.61
H   -9.474   -16.532   -7.535
H   -11.465   -18.054   -6.355
H   -11.021   -17.926   -9.243
H   -12.722   -19.435   -8.963
H   -13.384   -18.589   -7.732
H   -13.499   -18.03   -9.263
H   -12.861   -16.213   -8.064
N   -11.288   -20.485   -6.538
C   -11.122   -21.916   -6.572
C   -10.358   -22.488   -5.407
O   -10.44   -23.696   -5.17
H   -12.0   -20.003   -5.939
H   -12.046   -22.362   -6.618
H   -10.65   -22.18   -7.444
N   -9.611   -21.654   -4.689
C   -8.843   -22.122   -3.539
C   -9.797   -22.614   -2.449
O   -10.819   -21.976   -2.15
C   -8.014   -20.973   -2.968
C   -6.804   -20.6   -3.854
O   -6.505   -21.291   -4.848
O   -6.142   -19.593   -3.545
H   -9.622   -20.669   -5.009
H   -8.309   -22.914   -3.839
H   -8.595   -20.173   -2.891
H   -7.67   -21.244   -2.078
N   -9.451   -23.751   -1.846
C   -10.235   -24.371   -0.783
C   -9.651   -23.979   0.559
O   -8.433   -24.017   0.733
C   -10.198   -25.891   -0.935
C   -11.155   -26.414   -1.959
C   -10.762   -26.629   -3.276
C   -12.458   -26.695   -1.593
C   -11.689   -27.119   -4.216
C   -13.384   -27.169   -2.506
C   -13.014   -27.381   -3.812
H   -8.555   -24.167   -2.206
H   -11.153   -23.976   -0.83
H   -9.283   -26.145   -1.21
H   -10.434   -26.287   -0.061
H   -9.836   -26.443   -3.563
H   -12.742   -26.552   -0.636
H   -11.405   -27.276   -5.158
H   -14.335   -27.356   -2.201
H   -13.666   -27.719   -4.487
N   -10.518   -23.561   1.487
C   -10.061   -23.169   2.816
C   -9.858   -24.393   3.693
O   -10.756   -25.23   3.832
C   -11.068   -22.253   3.501
C   -10.903   -20.77   3.238
C   -11.315   -20.473   1.815
C   -11.733   -19.988   4.235
H   -11.505   -23.542   1.187
H   -9.181   -22.692   2.724
H   -11.979   -22.515   3.189
H   -10.991   -22.396   4.484
H   -9.949   -20.517   3.369
H   -12.273   -20.733   1.677
H   -11.21   -19.494   1.628
H   -10.74   -20.992   1.179
H   -11.428   -20.197   5.166
H   -11.628   -19.006   4.066
H   -12.699   -20.237   4.14
N   -8.676   -24.475   4.307
C   -8.337   -25.577   5.202
C   -8.284   -25.137   6.659
O   -8.738   -25.874   7.534
C   -6.99   -26.218   4.795
C   -6.985   -26.605   3.306
C   -6.658   -27.387   5.7
C   -8.079   -27.553   2.885
H   -8.024   -23.691   4.093
H   -9.092   -26.242   5.129
H   -6.273   -25.542   4.938
H   -7.055   -25.761   2.766
H   -6.095   -27.025   3.101
H   -5.748   -27.737   5.478
H   -6.673   -27.089   6.654
H   -7.331   -28.115   5.571
H   -8.97   -27.137   3.067
H   -7.996   -27.746   1.907
H   -7.998   -28.406   3.4
N   -7.723   -23.961   6.931
C   -7.538   -23.469   8.284
C   -7.758   -21.967   8.337
O   -7.336   -21.239   7.435
C   -6.121   -23.728   8.797
C   -5.789   -25.137   9.178
C   -4.556   -25.233   10.104
O   -4.174   -26.375   10.409
O   -3.966   -24.195   10.523
H   -7.427   -23.423   6.081
H   -8.186   -23.925   8.904
H   -5.492   -23.448   8.074
H   -5.99   -23.152   9.601
H   -6.542   -25.526   9.675
H   -5.57   -25.652   8.37
N   -8.39   -21.518   9.426
C   -8.591   -20.106   9.732
C   -8.032   -19.862   11.132
O   -8.527   -20.43   12.099
C   -10.083   -19.746   9.677
C   -10.347   -18.378   10.264
C   -10.609   -19.828   8.232
H   -8.737   -22.289   10.057
H   -8.059   -19.567   9.091
H   -10.576   -20.409   10.241
H   -10.328   -17.688   9.538
H   -11.246   -18.366   10.705
H   -9.644   -18.159   10.944
H   -11.425   -20.401   8.219
H   -10.831   -18.908   7.918
H   -9.901   -20.226   7.655
N   -6.986   -19.047   11.231
C   -6.366   -18.697   12.504
C   -6.162   -19.925   13.393
O   -6.515   -19.938   14.58
C   -7.158   -17.613   13.236
C   -7.306   -16.378   12.418
H   -6.644   -18.676   10.312
H   -5.449   -18.329   12.299
H   -8.061   -17.98   13.447
H   -6.673   -17.395   14.08
O   -6.352   -15.94   11.775
N   -8.51   -15.827   12.387
H   -9.264   -16.238   12.903
H   -8.671   -14.998   11.849
N   -5.652   -20.997   12.789
C   -5.295   -22.193   13.544
C   -6.382   -23.215   13.702
O   -6.123   -24.287   14.269
H   -5.535   -20.908   11.764
H   -4.477   -22.631   13.095
H   -4.96   -21.904   14.475
N   -7.584   -22.934   13.213
C   -8.719   -23.822   13.372
C   -9.001   -24.466   12.03
O   -9.208   -23.773   11.026
C   -9.936   -23.045   13.882
C   -11.183   -23.911   13.882
C   -9.629   -22.52   15.28
H   -7.638   -22.02   12.706
H   -8.469   -24.542   14.016
H   -10.105   -22.291   13.249
H   -10.927   -24.868   13.744
H   -11.656   -23.818   14.759
H   -11.793   -23.621   13.144
H   -10.45   -22.591   15.846
H   -8.894   -23.065   15.682
H   -9.344   -21.564   15.217
N   -9.008   -25.789   12.007
C   -9.295   -26.508   10.775
C   -10.767   -26.341   10.435
O   -11.637   -26.533   11.291
C   -8.981   -27.983   10.986
C   -9.085   -28.782   9.726
H   -8.799   -26.25   12.907
H   -8.773   -26.068   10.044
H   -8.05   -28.057   11.343
H   -9.627   -28.347   11.657
O   -10.181   -29.063   9.241
N   -7.936   -29.132   9.162
H   -7.066   -28.87   9.578
H   -7.938   -29.664   8.312
N   -11.045   -25.991   9.188
C   -12.411   -25.74   8.746
C   -12.832   -26.648   7.589
O   -13.846   -26.395   6.944
C   -12.634   -24.251   8.412
C   -12.565   -23.391   9.666
C   -11.642   -23.771   7.393
H   -10.218   -25.912   8.561
H   -13.033   -25.924   9.524
H   -13.557   -24.158   8.045
H   -13.123   -22.571   9.54
H   -12.91   -23.911   10.447
H   -11.616   -23.125   9.837
H   -11.736   -22.78   7.266
H   -10.71   -23.975   7.703
H   -11.805   -24.231   6.516
N   -12.084   -27.727   7.33
C   -12.403   -28.628   6.222
C   -13.856   -29.084   6.271
O   -14.533   -29.157   5.229
C   -11.438   -29.822   6.259
C   -11.884   -30.935   5.329
C   -10.037   -29.345   5.904
H   -11.281   -27.863   7.968
H   -12.264   -28.123   5.36
H   -11.45   -30.194   7.188
H   -12.792   -31.257   5.601
H   -11.922   -30.593   4.389
H   -11.235   -31.695   5.378
H   -9.566   -30.059   5.387
H   -10.101   -28.515   5.35
H   -9.532   -29.15   6.745
N   -14.34   -29.441   7.473
C   -15.677   -30.007   7.696
C   -16.52   -29.09   8.558
O   -17.263   -29.533   9.434
C   -15.616   -31.388   8.339
C   -14.904   -32.441   7.511
C   -15.384   -33.849   7.882
C   -14.484   -34.915   7.259
N   -14.894   -36.326   7.556
H   -13.66   -29.276   8.262
H   -16.127   -30.124   6.802
H   -15.14   -31.304   9.216
H   -16.555   -31.698   8.503
H   -15.094   -32.286   6.544
H   -13.923   -32.387   7.677
H   -15.354   -33.946   8.867
H   -16.305   -33.973   7.54
H   -14.474   -34.784   6.254
H   -13.537   -34.775   7.592
H   -14.959   -36.834   6.7
H   -14.21   -36.747   8.148
H   -15.781   -36.319   8.014
N   -16.428   -27.793   8.309
C   -17.156   -26.789   9.068
C   -18.112   -26.036   8.146
O   -17.789   -25.715   6.999
C   -16.194   -25.863   9.867
C   -16.909   -24.659   10.576
C   -15.333   -26.684   10.837
H   -15.785   -27.551   7.517
H   -17.705   -27.256   9.765
H   -15.548   -25.455   9.218
H   -16.211   -24.059   10.947
H   -17.458   -24.183   9.901
H   -17.481   -25.021   11.301
H   -14.856   -26.061   11.453
H   -15.926   -27.293   11.359
H   -14.673   -27.217   10.312
N   -19.31   -25.805   8.658
C   -20.364   -25.16   7.904
C   -20.101   -23.693   7.632
O   -19.312   -23.023   8.312
H   -19.427   -26.127   9.647
H   -20.49   -25.646   7.017
H   -21.245   -25.253   8.409
N   -20.808   -23.203   6.607
C   -20.525   -21.897   6.022
C   -20.591   -20.767   7.053
O   -19.65   -19.974   7.185
C   -21.453   -21.611   4.842
C   -21.115   -20.337   4.139
N   -21.766   -19.153   4.4
C   -20.219   -20.063   3.16
C   -21.293   -18.206   3.609
N   -20.351   -18.731   2.85
H   -21.567   -23.83   6.27
H   -19.589   -21.914   5.637
H   -21.387   -22.364   4.184
H   -22.396   -21.549   5.176
H   -19.584   -20.706   2.742
H   -21.598   -17.258   3.588
H   -19.816   -18.239   2.159
N   -21.712   -20.629   7.755
C   -21.838   -19.481   8.643
C   -20.818   -19.531   9.766
O   -20.343   -18.487   10.227
C   -23.23   -19.439   9.255
C   -24.281   -18.996   8.28
C   -25.578   -18.645   8.987
C   -26.052   -17.255   8.625
N   -25.956   -16.955   7.175
H   -22.42   -21.346   7.624
H   -21.69   -18.637   8.107
H   -23.456   -20.354   9.577
H   -23.213   -18.802   10.021
H   -23.958   -18.187   7.784
H   -24.463   -19.732   7.625
H   -26.278   -19.302   8.719
H   -25.429   -18.686   9.971
H   -27.015   -17.151   8.919
H   -25.502   -16.577   9.138
H   -26.819   -16.562   6.858
H   -25.215   -16.302   7.018
H   -25.769   -17.799   6.671
N   -20.507   -20.737   10.233
C   -19.526   -20.913   11.29
C   -19.558   -22.37   11.748
C   -20.874   -22.792   12.481
C   -22.072   -23.028   11.615
H   -21.017   -21.522   9.784
H   -19.788   -20.324   12.064
H   -19.461   -22.971   10.955
H   -18.804   -22.536   12.385
H   -20.664   -23.635   13.003
H   -21.082   -22.064   13.156
O   -21.982   -23.142   10.394
N   -23.233   -23.142   12.265
H   -24.107   -23.291   11.746
H   -23.241   -23.08   13.276
H   -1.79466   -9.77421   -2.83787
H   -18.5271   -20.5999   10.9589
