369

C   17.116   79.892   42.229
C   16.755   79.409   43.623
O   16.008   80.068   44.354
C   18.451   80.662   42.276
O   18.358   81.731   43.251
C   18.842   81.2   40.921
H   17.262   79.084   41.639
H   19.189   80.029   42.578
H   18.944   80.446   40.265
H   18.137   81.83   40.582
H   19.715   81.694   40.983
H   17.803   82.481   42.883
N   17.339   78.29   44.01
C   17.133   77.739   45.356
C   17.689   78.681   46.385
O   17.205   78.709   47.515
C   17.751   76.31   45.538
C   19.275   76.323   45.31
C   17.085   75.314   44.608
C   19.985   74.961   45.655
H   17.946   77.837   43.301
H   16.14   77.705   45.487
H   17.58   76.03   46.476
H   19.46   76.525   44.357
H   19.681   77.023   45.886
H   17.446   74.398   44.782
H   16.098   75.315   44.765
H   17.268   75.566   43.658
H   19.592   74.262   45.075
H   20.952   75.072   45.476
H   19.818   74.768   46.611
N   18.741   79.438   46.019
C   19.393   80.341   46.951
C   18.445   81.463   47.352
O   18.226   81.707   48.549
C   20.684   80.904   46.334
C   21.622   79.821   45.838
C   22.099   78.838   46.7
C   21.932   79.705   44.486
C   22.949   77.833   46.249
C   22.723   78.661   44.01
C   23.241   77.733   44.896
O   24.026   76.696   44.442
H   19.031   79.314   45.031
H   19.634   79.825   47.78
H   20.435   81.478   45.565
H   21.156   81.43   47.029
H   21.828   78.852   47.665
H   21.58   80.383   43.841
H   23.347   77.183   46.899
H   22.914   78.585   43.032
H   24.644   77.038   43.737
N   17.84   82.106   46.361
C   16.875   83.188   46.591
C   15.692   82.672   47.437
O   15.298   83.302   48.412
C   16.36   83.719   45.229
C   15.472   84.938   45.334
C   14.13   84.814   45.64
C   15.959   86.199   45.026
C   13.304   85.943   45.69
C   15.17   87.326   45.202
C   13.84   87.192   45.486
H   18.106   81.78   45.405
H   17.337   83.882   47.144
H   17.15   83.96   44.688
H   15.838   82.994   44.807
H   13.736   83.921   45.829
H   16.89   86.298   44.673
H   12.322   85.821   45.875
H   15.595   88.246   45.115
H   13.248   88.003   45.548
N   15.158   81.512   47.069
C   14.015   80.896   47.754
C   14.355   80.516   49.214
O   13.588   80.824   50.111
C   13.56   79.667   46.988
C   12.881   80.018   45.672
C   12.446   78.773   44.923
C   11.813   79.096   43.587
N   11.403   77.85   42.888
H   15.624   81.067   46.241
H   13.25   81.552   47.769
H   14.354   79.106   46.788
H   12.911   79.166   47.549
H   12.076   80.581   45.862
H   13.521   80.534   45.103
H   13.247   78.196   44.766
H   11.78   78.277   45.48
H   11.008   79.67   43.736
H   12.474   79.588   43.021
H   10.794   77.322   43.48
H   10.925   78.085   42.042
H   12.214   77.307   42.673
N   15.543   79.942   49.451
C   15.96   79.553   50.806
C   16.245   80.744   51.675
O   16.018   80.675   52.876
C   17.209   78.665   50.757
C   16.958   77.234   50.324
C   15.665   76.757   50.117
C   18.013   76.367   50.088
C   15.435   75.44   49.734
C   17.796   75.048   49.707
C   16.507   74.582   49.545
O   16.286   73.298   49.14
H   16.131   79.799   48.61
H   15.202   79.022   51.219
H   17.858   79.075   50.116
H   17.614   78.646   51.672
H   14.885   77.372   50.247
H   18.953   76.695   50.192
H   14.498   75.114   49.594
H   18.576   74.438   49.551
H   16.478   72.672   49.896
N   16.828   81.794   51.108
C   17.091   83.016   51.858
C   15.783   83.54   52.445
O   15.75   83.965   53.593
C   17.709   84.065   50.948
H   17.074   81.671   50.108
H   17.718   82.808   52.61
H   17.936   83.652   50.066
H   17.059   84.812   50.807
H   18.541   84.425   51.369
N   14.704   83.458   51.685
C   13.394   83.922   52.175
C   12.818   82.981   53.205
O   12.347   83.443   54.24
C   12.423   84.101   51.032
C   12.686   85.372   50.266
H   14.846   83.054   50.746
H   13.554   84.809   52.628
H   12.515   83.33   50.409
H   11.498   84.137   51.4
O   13.041   86.405   50.851
N   12.483   85.349   48.946
H   12.161   84.497   48.522
H   12.647   86.158   48.398
N   12.91   81.674   52.978
C   12.4   80.699   53.949
C   13.168   80.78   55.246
O   12.571   80.834   56.313
C   12.52   79.273   53.404
C   11.583   78.975   52.249
C   12.011   77.771   51.437
O   12.644   76.861   52.017
O   11.695   77.724   50.227
H   13.358   81.41   52.086
H   11.423   80.878   54.116
H   13.442   79.154   53.081
H   12.301   78.654   54.136
H   10.69   78.784   52.617
H   11.576   79.753   51.646
N   14.491   80.814   55.15
C   15.364   80.848   56.309
C   15.239   82.154   57.077
O   15.184   82.127   58.296
C   16.81   80.633   55.88
C   17.786   80.364   57.003
C   17.349   79.141   57.833
C   19.222   80.217   56.465
H   14.849   80.814   54.165
H   15.109   80.09   56.928
H   16.831   79.85   55.265
H   17.111   81.453   55.405
H   17.832   81.16   57.608
H   17.311   78.342   57.238
H   18.011   78.991   58.563
H   16.448   79.318   58.222
H   19.485   81.062   56.004
H   19.839   80.041   57.229
H   19.252   79.455   55.821
N   15.209   83.289   56.392
C   15.048   84.573   57.088
C   13.735   84.624   57.831
O   13.696   85.145   58.921
C   15.135   85.75   56.125
C   15.123   87.112   56.851
C   15.408   88.265   55.94
O   15.441   89.423   56.348
N   15.51   87.985   54.676
H   15.304   83.2   55.372
H   15.795   84.649   57.759
H   15.983   85.693   55.61
H   14.353   85.732   55.51
H   14.219   87.23   57.264
H   15.815   87.079   57.574
H   15.693   88.723   53.971
H   15.411   87.018   54.357
N   12.648   84.116   57.231
C   11.311   84.139   57.86
C   11.349   83.279   59.151
O   10.818   83.701   60.197
C   10.247   83.66   56.835
O   10.284   84.529   55.703
C   8.814   83.632   57.413
H   12.824   83.707   56.292
H   11.098   85.075   58.12
H   10.492   82.722   56.532
H   8.159   83.789   56.675
H   8.646   82.74   57.83
H   8.724   84.349   58.102
H   11.034   84.27   55.084
N   12.057   82.113   59.09
C   12.192   81.191   60.236
C   13.004   81.801   61.377
O   12.625   81.644   62.527
C   12.881   79.866   59.806
C   12.026   78.881   59.008
C   12.902   77.83   58.332
C   11.001   78.186   59.901
H   12.491   81.937   58.161
H   11.266   80.979   60.579
H   13.666   80.111   59.244
H   13.18   79.407   60.636
H   11.515   79.383   58.31
H   13.412   77.325   59.028
H   12.324   77.198   57.817
H   13.542   78.281   57.71
H   10.399   78.871   60.311
H   10.459   77.55   59.352
H   11.476   77.683   60.623
N   14.15   82.44   61.071
C   15.055   82.924   62.111
C   14.606   84.249   62.737
O   14.944   84.497   63.884
C   16.526   83.073   61.561
C   17.548   82.987   62.719
C   16.742   84.395   60.783
C   17.553   81.682   63.423
H   14.322   82.552   60.057
H   15.029   82.235   62.852
H   16.689   82.315   60.948
H   18.454   83.173   62.335
H   17.326   83.72   63.366
H   17.667   84.405   60.419
H   16.081   84.442   60.041
H   16.611   85.158   61.406
H   17.779   80.943   62.782
H   18.234   81.689   64.161
H   16.649   81.499   63.82
N   13.882   85.096   62.015
C   13.633   86.449   62.511
C   12.982   86.485   63.932
O   13.492   87.214   64.772
C   12.82   87.293   61.534
C   13.278   88.728   61.552
C   12.632   89.773   62.132
C   14.612   89.194   61.262
N   13.438   90.892   62.126
C   14.674   90.55   61.64
C   15.768   88.585   60.729
C   15.823   91.33   61.445
C   16.912   89.352   60.561
C   16.932   90.706   60.915
H   13.53   84.736   61.122
H   14.524   86.924   62.591
H   12.955   86.955   60.622
H   11.876   87.285   61.804
H   11.708   89.744   62.51
H   13.165   91.804   62.427
H   15.764   87.622   60.479
H   15.822   92.302   61.686
H   17.728   88.927   60.182
H   17.774   91.229   60.778
N   11.984   85.652   64.28
C   11.493   85.66   65.678
C   12.593   85.311   66.709
O   12.613   85.879   67.795
C   10.387   84.594   65.679
C   10.028   84.405   64.245
C   11.236   84.695   63.444
H   11.075   86.554   65.901
H   10.726   83.738   66.083
H   9.596   84.909   66.212
H   9.701   83.454   64.09
H   9.261   85.024   63.994
H   11.79   83.873   63.282
H   11.012   85.113   62.557
N   13.54   84.43   66.341
C   14.629   84.047   67.248
C   15.568   85.218   67.429
O   15.921   85.547   68.561
C   15.396   82.812   66.725
C   14.515   81.591   66.433
C   13.806   81.085   67.67
C   13.016   79.825   67.412
N   12.361   79.326   68.656
H   13.433   84.056   65.383
H   14.234   83.8   68.135
H   15.859   83.072   65.881
H   16.07   82.554   67.414
H   13.833   81.848   65.744
H   15.094   80.861   66.062
H   14.489   80.896   68.378
H   13.179   81.794   67.997
H   12.31   80.012   66.725
H   13.631   79.114   67.061
H   11.811   78.52   68.439
H   13.063   79.084   69.324
H   11.774   80.043   69.03
N   15.928   85.898   66.322
C   16.775   87.088   66.394
C   16.093   88.19   67.249
O   16.758   88.84   68.052
C   17.059   87.641   64.981
C   17.599   89.048   65.008
C   18.91   89.302   65.397
C   16.769   90.14   64.76
C   19.383   90.602   65.539
C   17.226   91.445   64.917
C   18.537   91.672   65.304
O   19.008   92.951   65.421
H   15.557   85.507   65.439
H   17.635   86.844   66.848
H   17.729   87.051   64.552
H   16.207   87.638   64.476
H   19.529   88.534   65.58
H   15.828   89.983   64.463
H   20.335   90.762   65.81
H   16.61   92.215   64.751
H   19.935   92.93   65.794
N   14.765   88.394   67.052
C   14.01   89.442   67.756
C   13.985   89.206   69.255
O   14.017   90.168   70.013
C   12.553   89.527   67.234
C   12.433   90.175   65.859
C   11.016   90.364   65.341
O   10.084   89.706   65.865
O   10.842   91.174   64.401
H   14.337   87.745   66.363
H   14.428   90.34   67.559
H   12.214   88.61   67.166
H   12.046   90.073   67.87
H   12.854   91.074   65.905
H   12.913   89.601   65.204
N   13.984   87.931   69.683
C   13.93   87.574   71.096
C   15.279   87.776   71.819
O   15.313   87.653   73.044
C   13.49   86.134   71.241
H   14.025   87.227   68.914
H   13.239   88.156   71.556
H   14.105   85.538   70.723
H   13.512   85.869   72.206
H   12.558   86.028   70.892
N   16.382   88.068   71.089
C   17.698   88.309   71.725
C   17.563   89.445   72.721
O   16.965   90.488   72.352
C   18.818   88.635   70.678
C   19.198   87.378   69.882
C   20.09   89.228   71.39
C   20.265   87.644   68.765
O   18.081   89.301   73.85
H   16.226   88.107   70.07
H   17.901   87.484   72.246
H   18.447   89.304   70.047
H   19.571   86.7   70.501
H   18.386   87.018   69.439
H   20.753   89.459   70.692
H   19.813   90.035   71.893
H   20.45   88.538   72.002
H   21.082   87.994   69.202
H   20.447   86.785   68.308
H   19.887   88.308   68.135
H   16.3415   80.483   41.801
