322

N   8.863   13.567   6.631
C   9.899   14.584   6.59
C   10.901   14.491   7.723
O   10.727   13.712   8.658
H   7.959   13.996   6.707
H   10.395   14.521   5.699
H   9.463   15.508   6.605
H   8.888   13.014   5.794
H   9.001   12.964   7.421
N   11.96   15.291   7.624
C   12.979   15.413   8.658
C   12.794   16.746   9.37
O   12.654   17.785   8.716
C   14.381   15.313   8.052
C   15.518   15.675   8.994
C   16.883   15.467   8.361
O   17.291   14.298   8.185
O   17.544   16.473   8.025
H   11.998   15.834   6.723
H   12.888   14.667   9.315
H   14.517   14.377   7.766
H   14.42   15.933   7.284
H   15.439   16.626   9.222
H   15.465   15.093   9.782
N   12.783   16.712   10.702
C   12.527   17.894   11.512
C   13.569   18.008   12.617
O   14.185   17.02   13.025
C   11.12   17.863   12.134
C   9.988   17.764   11.135
C   9.533   16.528   10.694
C   9.365   18.905   10.643
C   8.496   16.43   9.787
C   8.322   18.816   9.732
C   7.894   17.575   9.309
O   6.861   17.474   8.405
H   12.973   15.769   11.109
H   12.604   18.705   10.925
H   11.07   17.073   12.745
H   10.998   18.703   12.663
H   9.966   15.691   11.04
H   9.672   19.804   10.951
H   8.18   15.528   9.477
H   7.886   19.646   9.386
H   6.914   16.59   7.945
N   13.751   19.234   13.104
C   14.668   19.503   14.207
C   14.01   19.095   15.517
O   12.829   19.375   15.752
C   15.071   20.989   14.222
C   15.948   21.295   15.427
C   15.786   21.363   12.932
H   13.189   19.974   12.635
H   15.484   18.939   14.08
H   14.24   21.527   14.322
H   15.601   22.108   15.895
H   15.934   20.518   16.056
H   16.886   21.461   15.124
H   15.571   22.311   12.698
H   16.773   21.264   13.061
H   15.48   20.758   12.197
N   14.774   18.426   16.376
C   14.286   17.942   17.664
C   14.781   18.869   18.765
O   15.952   19.264   18.776
C   14.745   16.493   17.915
C   14.29   16.016   19.285
C   14.224   15.574   16.818
H   15.758   18.276   16.049
H   13.287   17.978   17.653
H   15.741   16.488   17.92
H   14.526   16.702   19.974
H   13.299   15.878   19.279
H   14.744   15.153   19.507
H   14.891   15.537   16.075
H   14.087   14.658   17.193
H   13.356   15.931   16.474
N   13.885   19.222   19.692
C   14.269   20.013   20.857
C   14.904   19.143   21.931
O   15.968   19.474   22.466
C   13.05   20.724   21.45
C   12.238   21.525   20.476
C   12.729   22.948   20.335
O   12.073   23.858   20.879
O   13.774   23.153   19.686
H   12.921   18.892   19.513
H   14.92   20.732   20.577
H   12.463   20.026   21.839
H   13.381   21.339   22.153
H   12.302   21.102   19.588
H   11.307   21.566   20.796
N   14.25   18.036   22.27
C   14.645   17.244   23.422
C   14.097   15.835   23.263
O   13.033   15.632   22.672
C   14.131   17.883   24.719
C   14.72   17.307   25.997
C   14.107   17.967   27.222
C   14.649   17.366   28.51
N   14.091   18.046   29.711
H   13.451   17.795   21.652
H   15.644   17.199   23.463
H   14.344   18.861   24.687
H   13.136   17.765   24.749
H   14.533   16.327   26.03
H   15.705   17.464   26.003
H   14.326   18.938   27.208
H   13.121   17.835   27.201
H   14.409   16.393   28.541
H   15.648   17.455   28.515
H   13.923   19.008   29.499
H   13.232   17.606   29.972
H   14.745   17.978   30.464
N   14.843   14.867   23.782
C   14.365   13.496   23.914
C   13.717   13.37   25.286
O   14.39   13.511   26.314
C   15.508   12.484   23.745
C   15.012   11.074   24.023
C   16.11   12.582   22.349
H   15.795   15.17   24.085
H   13.665   13.34   23.226
H   16.2   12.689   24.43
H   15.781   10.435   23.986
H   14.595   11.039   24.931
H   14.333   10.816   23.336
H   16.624   11.748   22.153
H   15.375   12.69   21.68
H   16.721   13.372   22.309
N   12.409   13.114   25.308
C   11.655   13.151   26.554
C   11.596   11.806   27.263
O   11.552   11.772   28.498
C   10.231   13.643   26.292
C   10.094   15.011   25.63
C   8.637   15.281   25.304
C   10.661   16.107   26.52
H   11.991   12.893   24.388
H   12.099   13.82   27.178
H   9.783   12.978   25.697
H   9.757   13.686   27.168
H   10.631   15.021   24.79
H   8.095   15.267   26.146
H   8.55   16.179   24.87
H   8.296   14.577   24.679
H   11.631   15.93   26.692
H   10.56   16.993   26.066
H   10.166   16.121   27.39
N   11.582   10.7   26.525
C   11.47   9.391   27.152
C   11.954   8.33   26.175
O   12.229   8.608   25.004
C   10.031   9.11   27.603
C   9.956   8.047   28.689
O   11.02   7.539   29.105
O   8.834   7.721   29.128
H   11.655   10.848   25.507
H   12.095   9.379   27.933
H   9.651   9.955   27.958
H   9.518   8.797   26.815
N   12.049   7.102   26.68
C   12.478   5.949   25.903
C   11.657   4.747   26.335
O   11.312   4.617   27.512
C   13.974   5.665   26.104
C   14.535   4.554   25.236
C   15.881   4.075   25.762
N   15.736   3.373   27.034
C   16.744   2.831   27.71
N   17.981   2.91   27.239
N   16.513   2.21   28.859
H   11.785   7.038   27.695
H   12.307   6.126   24.936
H   14.477   6.504   25.901
H   14.114   5.414   27.06
H   13.909   3.781   25.237
H   14.668   4.889   24.309
H   16.274   3.46   25.088
H   16.463   4.871   25.888
H   14.811   3.294   27.425
H   18.18   3.389   26.389
H   18.736   2.479   27.75
H   15.579   2.17   29.222
H   17.263   1.785   29.362
N   11.333   3.875   25.383
C   10.642   2.637   25.703
C   11.192   1.513   24.837
O   11.756   1.739   23.762
C   9.124   2.762   25.517
C   8.662   2.824   24.073
C   7.158   3.065   24.003
N   6.7   3.302   22.638
C   5.494   3.766   22.328
N   4.625   4.048   23.29
N   5.157   3.951   21.057
H   11.61   4.151   24.425
H   10.805   2.41   26.665
H   8.694   1.97   25.948
H   8.824   3.597   25.976
H   9.116   3.573   23.608
H   8.856   1.962   23.622
H   6.7   2.259   24.371
H   6.949   3.862   24.566
H   7.336   3.102   21.885
H   4.862   3.939   24.251
H   3.705   4.381   23.045
H   5.827   3.756   20.336
H   4.248   4.281   20.82
N   11.019   0.291   25.325
C   11.506   -0.908   24.657
C   10.298   -1.78   24.353
O   9.639   -2.282   25.272
C   12.533   -1.66   25.51
C   12.791   -3.025   24.919
C   13.822   -0.857   25.615
H   10.5   0.263   26.236
H   11.92   -0.64   23.794
H   12.135   -1.799   26.411
H   13.639   -3.404   25.295
H   12.032   -3.64   25.14
H   12.877   -2.954   23.923
H   13.865   -0.418   26.512
H   14.603   -1.471   25.503
H   13.836   -0.16   24.898
N   9.998   -1.953   23.067
C   8.832   -2.702   22.617
C   9.263   -3.652   21.51
O   9.906   -3.231   20.542
C   7.708   -1.775   22.118
C   6.531   -2.597   21.625
C   7.269   -0.811   23.219
H   10.675   -1.502   22.406
H   8.496   -3.249   23.382
H   8.059   -1.268   21.338
H   6.859   -3.329   21.027
H   6.05   -2.998   22.406
H   5.902   -2.01   21.114
H   7.055   0.075   22.811
H   6.459   -1.18   23.673
H   8.011   -0.709   23.88
N   8.906   -4.927   21.654
C   9.192   -5.954   20.651
C   10.669   -5.962   20.267
O   11.029   -6.047   19.091
C   8.301   -5.78   19.419
C   6.815   -5.826   19.743
C   5.966   -6.05   18.506
C   4.484   -5.94   18.837
N   4.102   -6.798   19.994
H   8.402   -5.133   22.548
H   8.953   -6.856   21.033
H   8.505   -4.898   19.008
H   8.506   -6.514   18.78
H   6.647   -6.573   20.392
H   6.547   -4.958   20.169
H   6.19   -5.359   17.83
H   6.143   -6.96   18.151
H   4.27   -4.983   19.052
H   3.95   -6.216   18.032
H   4.068   -7.753   19.701
H   4.78   -6.694   20.721
H   3.204   -6.518   20.331
N   11.531   -5.869   21.278
C   12.964   -5.928   21.066
C   13.571   -4.728   20.379
O   14.721   -4.808   19.936
H   11.09   -5.753   22.213
H   13.43   -6.066   21.973
H   13.186   -6.773   20.523
N   12.843   -3.616   20.277
C   13.336   -2.422   19.607
C   13.16   -1.206   20.507
O   12.277   -1.169   21.369
C   12.622   -2.198   18.267
C   12.851   -3.319   17.265
C   12.166   -3.037   15.941
C   12.7   -1.766   15.303
N   14.163   -1.846   15.039
H   11.899   -3.679   20.716
H   14.314   -2.537   19.409
H   11.646   -2.128   18.444
H   12.962   -1.349   17.874
H   13.835   -3.418   17.107
H   12.49   -4.173   17.643
H   12.334   -3.797   15.322
H   11.19   -2.927   16.098
H   12.217   -1.609   14.436
H   12.519   -0.992   15.917
H   14.415   -1.159   14.358
H   14.663   -1.675   15.888
H   14.388   -2.757   14.695
N   14.008   -0.204   20.283
C   14.084   0.986   21.124
C   13.396   2.146   20.414
O   13.682   2.429   19.244
C   15.546   1.336   21.453
C   15.612   2.535   22.38
C   16.26   0.137   22.07
H   14.622   -0.345   19.443
H   13.586   0.803   21.972
H   15.993   1.598   20.602
H   15.917   2.243   23.287
H   16.257   3.207   22.015
H   14.706   2.953   22.454
H   16.665   0.409   22.942
H   15.599   -0.598   22.219
H   16.977   -0.174   21.447
N   12.497   2.824   21.125
C   11.83   4.014   20.619
C   10.328   3.776   20.394
C   10.009   2.743   19.329
C   8.517   2.539   19.145
O   7.737   3.055   19.973
O   8.123   1.864   18.169
H   12.314   2.427   22.075
H   12.214   4.268   19.73
H   9.949   3.458   21.246
H   9.932   4.632   20.112
H   10.373   3.058   18.473
H   10.394   1.882   19.605
H   11.9693   4.83553   21.3256
