346

C   12.617   12.189   -36.382
C   13.182   12.248   -37.817
O   14.239   11.689   -38.056
C   12.261   13.566   -35.828
C   13.383   14.577   -35.874
H   11.782   11.64   -36.429
H   11.485   13.927   -36.357
H   11.971   13.454   -34.871
O   14.415   14.384   -36.547
N   13.172   15.71   -35.173
H   12.325   15.83   -34.668
H   13.873   16.42   -35.168
N   12.5   12.914   -38.758
C   12.974   12.904   -40.149
C   14.249   13.723   -40.397
O   14.947   13.501   -41.401
C   11.859   13.329   -41.117
C   10.776   12.271   -41.293
O   11.025   11.096   -40.936
O   9.714   12.601   -41.846
H   11.663   13.405   -38.437
H   13.197   11.937   -40.379
H   11.44   14.156   -40.757
H   12.274   13.51   -42.002
N   14.603   14.609   -39.47
C   15.878   15.323   -39.554
C   17.042   14.41   -39.004
O   18.212   14.697   -39.228
C   15.803   16.609   -38.753
H   13.919   14.746   -38.707
H   16.086   15.527   -40.508
H   16.575   16.656   -38.118
H   15.837   17.394   -39.372
H   14.947   16.634   -38.235
N   16.687   13.301   -38.371
C   17.657   12.386   -37.786
C   17.892   12.675   -36.317
O   18.811   12.108   -35.72
H   15.654   13.14   -38.328
H   17.327   11.435   -37.892
H   18.533   12.462   -38.287
N   17.041   13.52   -35.696
C   17.217   13.867   -34.289
C   16.507   12.885   -33.371
O   15.281   12.77   -33.435
C   16.701   15.3   -34.009
C   17.165   15.851   -32.658
C   16.498   17.188   -32.269
C   15.106   17.021   -31.702
N   15.113   16.693   -30.247
H   16.283   13.882   -36.293
H   18.205   13.857   -34.073
H   17.043   15.894   -34.724
H   15.71   15.274   -34.015
H   16.958   15.176   -31.941
H   18.161   15.992   -32.686
H   17.077   17.635   -31.586
H   16.45   17.761   -33.089
H   14.589   17.875   -31.841
H   14.634   16.283   -32.2
H   15.068   17.539   -29.718
H   14.322   16.121   -30.034
H   15.954   16.202   -30.024
N   17.234   12.338   -32.364
C   16.658   11.499   -31.324
C   15.703   12.343   -30.502
O   16.04   13.457   -30.094
C   17.757   10.931   -30.401
C   18.565   9.834   -31.06
O   18.051   9.214   -32.005
O   19.75   9.64   -30.668
H   18.252   12.581   -32.412
H   16.115   10.794   -31.777
H   18.362   11.68   -30.16
H   17.312   10.566   -29.593
N   14.489   11.854   -30.35
C   13.444   12.579   -29.656
C   12.89   11.64   -28.607
O   12.83   10.43   -28.851
C   12.382   13.008   -30.675
O   13.031   13.763   -31.703
C   11.275   13.833   -30.065
H   14.345   10.906   -30.769
H   13.845   13.364   -29.2
H   11.975   12.179   -31.098
H   10.386   13.547   -30.435
H   11.263   13.713   -29.068
H   11.414   14.806   -30.272
H   13.762   13.219   -32.129
N   12.519   12.192   -27.436
C   12.07   11.363   -26.331
C   10.641   11.669   -25.981
O   10.223   12.829   -25.97
C   12.961   11.55   -25.104
C   14.381   11.099   -25.354
C   15.292   11.935   -25.981
C   14.783   9.813   -25.042
C   16.605   11.523   -26.198
C   16.079   9.381   -25.322
C   16.976   10.235   -25.912
H   12.584   13.221   -27.405
H   12.101   10.408   -26.652
H   12.982   12.507   -24.885
H   12.595   11.004   -24.375
H   15.012   12.842   -26.281
H   14.139   9.18   -24.609
H   17.271   12.186   -26.568
H   16.343   8.43   -25.084
H   17.904   9.92   -26.135
N   9.885   10.624   -25.663
C   8.5   10.823   -25.247
C   8.159   9.74   -24.251
O   8.493   8.573   -24.472
C   7.534   10.833   -26.453
C   6.081   11.149   -26.0
C   7.577   9.509   -27.247
C   5.106   11.221   -27.204
H   10.341   9.706   -25.733
H   8.479   11.687   -24.755
H   7.818   11.556   -27.072
H   5.779   10.436   -25.394
H   6.08   12.024   -25.548
H   6.995   9.595   -28.049
H   8.515   9.33   -27.525
H   7.248   8.773   -26.664
H   5.115   10.342   -27.666
H   4.198   11.424   -26.859
H   5.416   11.94   -27.815
N   7.684   10.151   -23.084
C   7.423   9.18   -22.018
C   6.329   8.206   -22.412
O   5.286   8.621   -22.966
C   7.03   9.903   -20.72
C   8.198   10.707   -20.165
C   7.991   11.049   -18.698
C   8.987   12.063   -18.155
N   8.878   13.412   -18.778
H   7.522   11.16   -22.994
H   8.272   8.664   -21.838
H   6.291   10.521   -20.922
H   6.77   9.224   -20.055
H   9.036   10.169   -20.257
H   8.287   11.555   -20.686
H   7.065   11.422   -18.582
H   8.07   10.207   -18.156
H   8.849   12.151   -17.156
H   9.924   11.709   -18.302
H   9.794   13.773   -18.948
H   8.381   13.338   -19.642
H   8.387   14.024   -18.159
N   6.51   6.921   -22.035
C   5.487   5.917   -22.238
C   4.416   6.167   -21.189
O   4.752   6.486   -20.047
C   6.052   4.513   -22.062
S   7.456   4.122   -23.149
H   7.433   6.736   -21.598
H   5.081   6.05   -23.133
H   6.357   4.412   -21.116
H   5.324   3.855   -22.251
N   3.21   5.668   -21.418
C   2.218   5.712   -20.33
C   2.635   4.814   -19.169
O   3.363   3.828   -19.381
C   0.929   5.232   -21.003
C   1.112   5.571   -22.451
C   2.589   5.333   -22.712
H   2.077   6.658   -20.019
H   0.812   4.244   -20.88
H   0.132   5.706   -20.623
H   0.552   4.977   -23.027
H   0.873   6.526   -22.623
H   2.763   4.382   -22.952
H   2.928   5.933   -23.433
N   2.227   5.156   -17.925
C   2.75   4.443   -16.748
C   2.013   3.164   -16.388
O   2.527   2.383   -15.575
C   2.767   5.375   -15.525
C   4.078   6.096   -15.375
C   4.154   6.88   -14.081
C   5.437   7.675   -14.014
N   6.554   6.86   -13.466
H   1.551   5.923   -17.883
H   3.733   4.216   -16.926
H   2.042   6.042   -15.641
H   2.608   4.82   -14.718
H   4.829   5.427   -15.39
H   4.199   6.732   -16.144
H   3.386   7.508   -14.039
H   4.13   6.246   -13.317
H   5.68   7.986   -14.936
H   5.298   8.477   -13.427
H   7.194   7.456   -12.981
H   6.188   6.178   -12.833
H   7.029   6.4   -14.216
N   0.844   2.924   -16.994
C   -0.021   1.814   -16.588
C   0.598   0.437   -16.897
O   1.446   -0.007   -16.126
C   -1.439   1.986   -17.168
C   -2.53   1.256   -16.416
C   -3.301   1.917   -15.47
C   -2.911   -0.023   -16.787
C   -4.375   1.281   -14.854
C   -4.009   -0.642   -16.198
C   -4.733   0.013   -15.234
H   0.61   3.581   -17.761
H   -0.116   1.865   -15.584
H   -1.654   2.954   -17.153
H   -1.427   1.641   -18.097
H   -3.089   2.859   -15.225
H   -2.391   -0.512   -17.49
H   -4.88   1.767   -14.127
H   -4.263   -1.581   -16.491
H   -5.525   -0.433   -14.805
N   0.209   -0.239   -17.991
C   0.699   -1.606   -18.245
C   0.698   -1.962   -19.73
O   1.679   -2.506   -20.232
C   -0.145   -2.63   -17.469
C   0.052   -2.576   -15.967
O   1.207   -2.743   -15.513
O   -0.945   -2.345   -15.245
H   -0.436   0.263   -18.612
H   1.66   -1.635   -17.932
H   -1.105   -2.45   -17.674
H   0.105   -3.539   -17.794
N   -0.438   -1.758   -20.398
C   -0.592   -2.077   -21.817
C   0.312   -1.198   -22.692
O   0.772   -1.652   -23.738
C   -2.071   -1.933   -22.224
C   -2.376   -2.098   -23.695
H   -1.208   -1.351   -19.82
H   -0.285   -3.027   -21.945
H   -2.601   -2.62   -21.706
H   -2.383   -1.017   -21.931
O   -3.239   -1.401   -24.244
N   -1.749   -3.07   -24.353
H   -1.106   -3.657   -23.848
H   -1.912   -3.214   -25.319
N   0.636   0.021   -22.231
C   1.454   0.941   -23.016
C   2.776   1.326   -22.329
O   3.56   2.057   -22.948
C   0.62   2.186   -23.369
C   -0.662   1.826   -24.121
C   -1.183   2.958   -24.996
C   -2.212   2.461   -25.987
N   -2.667   3.54   -26.904
H   0.261   0.24   -21.292
H   1.676   0.505   -23.907
H   0.372   2.641   -22.528
H   1.168   2.772   -23.947
H   -0.481   1.024   -24.702
H   -1.372   1.58   -23.451
H   -1.605   3.645   -24.412
H   -0.419   3.353   -25.497
H   -1.812   1.716   -26.53
H   -3.005   2.102   -25.485
H   -2.402   3.313   -27.841
H   -3.662   3.625   -26.849
H   -2.242   4.405   -26.636
N   3.085   0.765   -21.141
H   2.354   0.17   -20.734
C   -0.702   13.268   -30.084
O   -1.245   13.268   -28.982
N   0.627   13.334   -30.246
C   1.527   13.392   -29.105
C   1.264   12.172   -28.224
O   1.215   12.285   -27.002
C   1.33   14.712   -28.331
C   2.465   15.016   -27.365
H   0.941   13.34   -31.233
H   2.457   13.304   -29.452
H   1.268   15.454   -28.994
H   0.48   14.644   -27.814
O   3.632   14.75   -27.64
N   2.132   15.625   -26.216
H   1.171   15.844   -26.043
H   2.833   15.852   -25.552
N   1.127   10.985   -28.861
C   0.785   9.741   -28.153
C   1.807   8.651   -28.42
O   2.294   8.546   -29.547
C   -0.569   9.26   -28.611
H   1.284   11.034   -29.887
H   0.765   9.935   -27.163
H   -0.582   8.259   -28.645
H   -1.276   9.574   -27.974
H   -0.768   9.621   -29.524
N   2.096   7.805   -27.423
C   3.051   6.72   -27.659
C   2.529   5.444   -27.048
O   1.738   5.457   -26.091
C   4.491   7.024   -27.168
C   4.558   7.071   -25.656
C   5.497   6.0   -27.697
H   1.619   7.977   -26.539
H   3.129   6.59   -28.65
H   4.734   7.931   -27.505
H   4.216   7.954   -25.33
H   3.997   6.337   -25.27
H   5.506   6.953   -25.356
H   5.37   5.897   -28.682
H   6.422   6.323   -27.505
H   5.342   5.125   -27.242
N   2.886   4.346   -27.687
C   2.517   3.031   -27.22
C   3.833   2.228   -27.113
O   4.566   2.153   -28.102
C   1.564   2.362   -28.222
C   1.127   0.996   -27.755
O   1.669   0.519   -26.736
O   0.205   0.423   -28.378
H   3.453   4.512   -28.55
H   2.168   3.117   -26.298
H   0.768   2.943   -28.316
H   2.044   2.273   -29.083
N   4.213   1.794   -25.891
C   5.475   1.066   -25.697
C   5.193   -0.384   -25.401
O   4.173   -0.674   -24.803
C   6.279   1.716   -24.581
S   6.495   3.499   -24.826
H   3.553   2.015   -25.13
H   5.998   1.125   -26.551
H   5.8   1.579   -23.725
H   7.178   1.298   -24.555
N   6.034   -1.276   -25.938
C   5.878   -2.724   -25.773
C   6.525   -3.189   -24.455
O   6.0   -4.154   -23.86
C   6.535   -3.491   -26.953
C   5.77   -3.35   -28.252
O   4.776   -2.586   -28.277
O   6.144   -4.025   -29.236
O   7.574   -2.628   -24.054
H   6.815   -0.848   -26.487
H   4.896   -2.912   -25.695
H   7.45   -3.124   -27.071
H   6.573   -4.449   -26.699
H   13.3005   11.6846   -35.7546
H   -1.30785   13.2896   -30.9558
H   3.99745   0.936388   -20.6934
