213

N   2.412   12.188   -37.777
C   3.182   11.096   -38.384
C   3.315   9.956   -37.382
O   3.025   10.141   -36.202
C   4.566   11.586   -38.783
H   2.951   13.031   -37.791
H   2.688   10.764   -39.188
H   4.609   11.694   -39.776
H   4.748   12.466   -38.345
H   5.253   10.921   -38.491
H   1.565   12.331   -38.291
H   2.187   11.957   -36.83
N   3.669   8.76   -37.862
C   3.914   7.627   -36.989
C   5.385   7.252   -37.079
O   5.918   7.039   -38.178
C   3.036   6.445   -37.389
C   1.566   6.682   -37.054
C   0.694   5.497   -37.44
C   -0.781   5.807   -37.31
N   -1.203   5.931   -35.89
H   3.75   8.72   -38.898
H   3.705   7.886   -36.046
H   3.114   6.311   -38.366
H   3.343   5.644   -36.894
H   1.48   6.841   -36.068
H   1.247   7.494   -37.547
H   0.888   5.253   -38.389
H   0.914   4.729   -36.842
H   -0.978   6.67   -37.788
H   -1.311   5.072   -37.747
H   -1.145   6.889   -35.608
H   -2.146   5.611   -35.794
H   -0.602   5.376   -35.315
N   6.067   7.233   -35.932
C   7.471   6.849   -35.901
C   7.602   5.572   -35.081
O   6.816   5.366   -34.144
C   8.285   7.928   -35.184
C   8.544   9.148   -36.035
C   9.578   9.166   -36.958
C   7.779   10.296   -35.891
C   9.914   10.325   -37.644
C   8.052   11.441   -36.641
C   9.167   11.471   -37.464
O   9.54   12.616   -38.115
H   5.524   7.507   -35.096
H   7.767   6.653   -36.833
H   7.782   8.212   -34.374
H   9.162   7.536   -34.925
H   10.098   8.325   -37.137
H   7.02   10.308   -35.244
H   10.699   10.326   -38.27
H   7.447   12.232   -36.583
H   9.981   12.377   -38.979
N   8.654   4.787   -35.334
C   8.908   3.646   -34.476
C   10.233   3.926   -33.8
O   11.146   4.438   -34.464
C   8.948   2.358   -35.298
O   7.612   2.065   -35.739
C   9.52   1.178   -34.499
H   9.223   5.054   -36.139
H   8.202   3.601   -33.784
H   9.525   2.504   -36.121
H   9.985   1.522   -33.683
H   8.776   0.568   -34.227
H   10.172   0.676   -35.067
H   7.006   1.936   -34.948
N   10.321   3.633   -32.495
C   11.55   3.867   -31.749
C   11.857   2.682   -30.855
O   11.346   1.572   -31.077
H   9.46   3.237   -32.081
H   12.31   4.009   -32.391
H   11.448   4.694   -31.187
N   12.654   2.911   -29.805
C   12.969   1.85   -28.839
C   12.775   2.46   -27.469
O   13.11   3.634   -27.305
C   14.43   1.381   -28.996
C   14.663   0.652   -30.314
C   16.104   0.175   -30.466
C   16.264   -0.641   -31.723
N   17.644   -1.173   -31.867
H   13.019   3.875   -29.735
H   12.329   1.107   -28.962
H   15.013   2.179   -28.969
H   14.635   0.762   -28.252
H   14.054   -0.144   -30.358
H   14.447   1.271   -31.073
H   16.696   0.969   -30.517
H   16.336   -0.387   -29.682
H   15.617   -1.411   -31.702
H   16.05   -0.066   -32.52
H   18.301   -0.479   -31.573
H   17.746   -1.991   -31.3
H   17.812   -1.407   -32.825
N   12.272   1.691   -26.484
C   12.057   2.268   -25.147
C   13.038   1.701   -24.121
O   13.658   0.668   -24.361
C   10.61   2.075   -24.695
S   10.092   0.349   -24.493
H   12.066   0.726   -26.738
H   12.208   3.262   -25.209
H   10.493   2.541   -23.816
H   10.012   2.502   -25.376
N   13.235   2.437   -23.016
C   14.016   1.962   -21.881
C   13.06   1.79   -20.697
O   12.142   2.601   -20.509
C   15.154   2.909   -21.566
O   14.602   4.136   -21.134
C   16.03   3.15   -22.746
H   12.779   3.376   -23.046
H   14.4   1.073   -22.103
H   15.712   2.521   -20.805
H   16.889   3.597   -22.466
H   16.261   2.281   -23.202
H   15.569   3.745   -23.417
H   13.86   4.433   -21.75
N   13.233   0.698   -19.947
C   12.294   0.28   -18.925
C   12.602   -1.174   -18.509
C   11.545   -1.774   -17.61
C   11.724   -3.27   -17.39
C   10.489   -3.905   -16.78
N   10.491   -5.394   -16.905
H   14.114   0.17   -20.167
H   11.358   0.274   -19.314
H   12.667   -1.719   -19.338
H   13.472   -1.173   -18.027
H   11.573   -1.313   -16.713
H   10.636   -1.617   -18.016
H   11.905   -3.703   -18.269
H   12.494   -3.414   -16.774
H   10.442   -3.66   -15.805
H   9.671   -3.541   -17.24
H   11.415   -5.704   -17.121
H   10.194   -5.797   -16.041
H   9.865   -5.663   -17.635
C   4.4   1.012   -20.496
C   5.543   0.145   -21.097
O   5.294   -0.978   -21.502
C   4.326   0.804   -18.975
C   4.545   -0.626   -18.496
C   4.452   -0.735   -16.964
C   5.47   -1.685   -16.375
N   6.791   -1.033   -16.176
H   4.642   1.984   -20.622
H   5.022   1.388   -18.549
H   3.419   1.104   -18.666
H   3.847   -1.218   -18.898
H   5.451   -0.934   -18.78
H   4.596   0.177   -16.578
H   3.534   -1.055   -16.729
H   5.133   -2.02   -15.489
H   5.582   -2.471   -16.992
H   6.874   -0.254   -16.797
H   6.866   -0.716   -15.231
H   7.519   -1.692   -16.366
N   6.804   0.619   -21.023
C   7.945   -0.143   -21.569
C   8.193   -1.353   -20.688
O   8.357   -1.165   -19.483
C   9.185   0.732   -21.638
S   10.576   -0.046   -22.515
H   6.897   1.536   -20.563
H   7.694   -0.459   -22.481
H   8.954   1.573   -22.116
H   9.483   0.934   -20.71
N   8.27   -2.584   -21.249
C   8.441   -3.755   -20.392
C   9.876   -4.305   -20.42
O   10.198   -5.185   -19.632
C   7.423   -4.845   -20.73
O   7.584   -5.245   -22.098
C   5.988   -4.409   -20.449
H   8.201   -2.606   -22.265
H   8.228   -3.49   -19.439
H   7.598   -5.66   -20.14
H   5.988   -3.644   -19.803
H   5.549   -4.12   -21.302
H   5.474   -5.173   -20.056
H   6.913   -4.774   -22.68
N   10.732   -3.783   -21.306
C   12.118   -4.235   -21.386
C   12.955   -3.242   -22.193
O   12.48   -2.7   -23.211
C   12.177   -5.615   -22.066
C   13.515   -6.327   -21.869
C   13.482   -7.757   -22.363
C   13.353   -7.859   -23.868
N   13.585   -9.248   -24.339
H   10.331   -3.047   -21.915
H   12.497   -4.294   -20.458
H   11.461   -6.182   -21.678
H   12.031   -5.486   -23.04
H   14.224   -5.823   -22.37
H   13.741   -6.322   -20.892
H   14.329   -8.215   -22.084
H   12.702   -8.227   -21.944
H   12.432   -7.569   -24.138
H   14.025   -7.249   -24.296
H   14.338   -9.255   -24.997
H   13.818   -9.83   -23.559
H   12.755   -9.594   -24.777
N   14.213   -3.003   -21.759
H   14.478   -3.483   -20.899
H   14.8174   -2.3799   -22.287
H   3.44282   0.832211   -20.9655
H   12.2954   0.954315   -18.0482
