49

C 0.5767764434	-0.4989871141	1.4854377453
C -0.9358612034	-0.3038884712	1.25364491
C -1.2042814117	0.9445087236	0.4183914847
C -0.4156468861	0.8091422798	-0.9204344279
C -2.6525099814	1.1460482809	-0.0964291242
C -2.459781134	2.095493495	-1.3167054854
C -0.9577309661	2.0199925263	-1.7108360488
C -3.7606221638	1.5142378264	0.9318029269
C -5.0990878889	0.836299505	0.5711280486
C -5.1655738008	-0.6702417882	0.8572474124
C -6.5236713135	-1.2483736862	0.5520394236
C -6.8618229212	-2.1670823269	-0.3473650272
C -4.0145729036	3.0139177916	1.1432657571
C -8.2977537312	-2.610472356	-0.4966577106
C -5.9075011308	-2.8581622272	-1.2907596673
C -0.780585143	-0.4528007196	-1.7517545769
C -0.745455078	2.1796963925	1.2267128595
H -3.4498269121	1.1033116271	1.8981331353
H 0.8495731984	0.0127914359	2.4107868963
H 0.7566530577	-1.5542085016	1.6883274103
H -1.3553091892	-1.1798300907	0.7584485239
H -1.4314034295	-0.2442774802	2.2262187147
H -2.9508854884	0.1796514075	-0.495530472
H -3.1044907783	1.7970656525	-2.1454954934
H -2.7281413783	3.1236830904	-1.0817608333
H -0.449146967	2.941499344	-1.4300830123
H -0.822847957	1.9057452916	-2.7877008973
H -5.3277564699	1.0157351896	-0.4853534955
H -5.901886833	1.320381659	1.1362268505
H -4.3846510337	-1.1995242311	0.3149477738
H -4.9559085853	-0.8283687732	1.9214514352
H -7.3265324131	-0.8357038088	1.1585768696
H -4.6729948626	3.1575051418	2.0036819393
H -4.5130503158	3.4597824842	0.2790235963
H -3.104150039	3.5802222859	1.3314882785
H -8.9569806275	-2.0939849689	0.2008579428
H -8.6592440012	-2.4216924064	-1.5123427454
H -8.3916824331	-3.6869279234	-0.3220259014
H -4.880607125	-2.5141567684	-1.1978867726
H -6.2223648132	-2.7019330925	-2.326923579
H -5.9184975051	-3.9385982267	-1.1173055335
H -0.6003942055	-1.379119477	-1.2095570615
H -0.1479985167	-0.4773397241	-2.6414661329
H -1.8129255126	-0.4527376785	-2.1027866167
H 0.3181754844	2.1501543704	1.4509818104
H -1.2804666469	2.2174217449	2.1777866444
H -0.9391305207	3.1181224942	0.7100563843
H 0.6634338532416109	0.7290548066241611	-0.7313668729026845
H 1.2609243173939597	-0.14002024133624158	0.7018855387610738
