9

H 1.9043080033	-0.5682639549	2.2859326987
H 1.3171977072	-2.052025501	1.5527070369
C 1.9771808118	-1.1980625686	1.3995349851
C 3.3874321678	-1.6899524862	1.2911745271
F 4.2820160593	-0.7565320153	1.6255786305
C 3.7959833213	-2.8952931653	0.9619918044
H 4.8492986684	-3.1356057704	0.9462211532
H 3.0812760082	-3.6547272675	0.6849879279
H 1.5804351679921051	-0.6051490012039473	0.5682419478664473
