14

C 3.225504272	0.2204429167	0.0213248168
C 2.3691564125	1.4475266633	-0.3818749371
C 1.373975442	-0.7158808653	-0.251707561
C 2.2527980038	-1.3142233127	-1.3274652019
C 3.4169968743	-0.7045557429	-1.1740499362
O 2.3102335787	-0.501742619	0.795926497
Cl 4.6974730306	0.6005647752	0.9297545314
H 2.3653505279	2.1724474111	0.4294536664
H 2.7403738397	1.9344140039	-1.2816631962
H 1.942096366	-2.0095287447	-2.0907973127
H 4.3118000332	-0.7624562214	-1.7733175669
H 1.3995743095414475	0.9631396888381578	-0.5197833330078947
H 1.1049483643276314	0.3226571968184211	-0.48124693876776314
H 0.4660578734020133	-1.1663028895879195	0.1407251876610739
