6

C -0.8680482178	0.3941413568	-0.8252519415
C -0.1025314479	-0.3336211108	-1.6101989388
N 0.5179154662	-1.0011687703	-2.4012573694
H -0.6541701099479451	1.4291080251342467	-0.6923308077356165
H -1.6964461660465755	-0.06849941806027399	-0.34160314028356165
H 1.346680237742857	-1.5495689767489795	-2.19223882722449
