7

C -1.2729332863	-1.75839187	-0.9457885817
H -2.0246315481	-2.381821373	-1.4116571653
H -0.4342974831	-2.4014227685	-0.6826628625
N -1.8032991751	-1.1856988535	0.2795226906
H -1.1445867992918366	-0.6896095221163265	0.8621062903428572
H -2.7407292368416667	-1.1304208880041666	0.4906825791125
H -0.9497312171486842	-0.9754103268105262	-1.6187202760835526
