14

C -0.3729269894	-0.8834819072	0.3753599894
C -0.1540262186	0.6689931856	0.421776119
C -1.4025589599	1.2146282369	-0.304840116
C 1.1831579033	1.0908912852	-0.1933370059
H -0.457711749	-1.2837586041	1.3895843796
H -0.1525869488	1.0151909255	1.4589070341
H -1.2842891075	2.2375756985	-0.6652715419
H 1.3343278152	2.1619486049	-0.0298438654
H 1.1758049135	0.9479801713	-1.2783324695
H -1.3251885045973686	-0.9756869694723684	-0.14054715741184215
H -1.5841639400631577	0.4575483755361843	-1.056368806100658
H 0.44100056674407895	-1.3956972981973683	-0.11044081245592108
H -2.262942067493421	1.0769729494217106	0.3408747697651316
H 2.0026838094710526	0.5401147530546052	0.24252355818947366
