8

H 3.8590259372	1.8270092542	0.0299842412
C 2.3473442373	0.3084797629	0.4258294029
C 3.6966457999	0.7585598682	-0.133960889
H 2.3448569412	0.5436564007	1.4958100453
H 3.7565742837	0.572286553	-1.2106480436
H 4.5197807071	0.2191698965	0.3418540714
H 1.5278183311289473	0.8592562950453947	-0.01003116118947367
H 2.2041874407078947	-0.7715325095236842	0.3202027921782895
