44

N 5.935	-11.597	-22.716
C 5.632	-12.817	-21.977
C 4.184	-13.242	-22.2
O 3.917	-14.296	-22.778
C 5.893	-12.613	-20.484
C 6.48	-13.846	-19.825
O 7.563	-14.29	-20.258
O 5.856	-14.366	-18.876
H 5.609	-10.738	-22.375
H 6.283	-13.597	-22.343
H 6.586	-11.794	-20.355
H 4.962	-12.372	-19.992
N 3.253	-12.415	-21.737
C 1.831	-12.705	-21.884
C 1.363	-12.429	-23.31
O 0.469	-13.101	-23.822
C 1.014	-11.869	-20.897
C 1.335	-10.374	-20.857
C 0.12	-9.556	-21.265
C 1.814	-9.968	-19.471
H 3.527	-11.59	-21.285
H 1.682	-13.752	-21.666
H -0.028	-11.976	-21.155
H 1.182	-12.271	-19.907
H 2.129	-10.164	-21.561
H 0.443	-8.659	-21.769
H -0.447	-9.291	-20.384
H -0.501	-10.14	-21.928
H 1.815	-8.891	-19.392
H 2.815	-10.341	-19.312
H 1.152	-10.383	-18.726
N 1.977	-11.436	-23.946
C 1.612	-11.089	-25.307
C 0.24	-10.451	-25.395
O -0.655	-10.976	-26.058
H 2.683	-10.934	-23.488
H 2.344	-10.4	-25.701
H 1.618	-11.987	-25.909
N 0.072	-9.317	-24.723
H 0.823	-8.949	-24.213
C 6.642	-11.621	-23.84
O 7.086	-12.659	-24.331
H 6.8109127516778525	-10.680114093959732	-24.309744966442953
H -0.8113061224489797	-8.82434693877551	-24.72716326530612
