52

C 0.21	2.177	-18.74
O 0.136	2.824	-17.695
N 1.358	1.944	-19.367
C 2.625	2.449	-18.852
C 2.655	3.974	-18.863
O 3.033	4.604	-17.877
C 3.817	1.918	-19.671
C 4.021	0.425	-19.405
C 5.079	2.698	-19.336
C 5.121	-0.193	-20.24
H 1.353	1.422	-20.196
H 2.732	2.105	-17.834
H 3.6	2.063	-20.718
H 4.274	0.282	-18.366
H 3.102	-0.101	-19.623
H 5.224	2.706	-18.266
H 5.928	2.229	-19.81
H 4.981	3.712	-19.693
H 4.92	-0.018	-21.286
H 6.068	0.252	-19.974
H 5.159	-1.257	-20.054
N 2.252	4.56	-19.986
C 2.229	6.011	-20.125
C 1.445	6.654	-18.985
O 1.711	7.793	-18.601
C 1.615	6.407	-21.468
C 0.123	6.688	-21.395
S -0.243	8.433	-21.124
C -1.582	8.683	-22.286
H 1.962	4.004	-20.739
H 3.249	6.363	-20.088
H 2.109	7.297	-21.829
H 1.773	5.606	-22.174
H -0.335	6.38	-22.324
H -0.298	6.115	-20.582
H -2.255	7.839	-22.247
H -2.119	9.584	-22.028
H -1.18	8.777	-23.284
N 0.479	5.917	-18.448
C -0.342	6.414	-17.351
C 0.386	6.284	-16.017
O 0.282	7.156	-15.154
C -1.668	5.671	-17.304
H 0.315	5.016	-18.797
H -0.549	7.459	-17.536
H -1.488	4.609	-17.383
H -2.168	5.884	-16.371
H -2.29	5.992	-18.127
N 1.123	5.191	-15.855
H 1.167	4.532	-16.579
H -0.6631812080536912	1.770073825503356	-19.192295302013424
H 1.6406326530612245	5.021	-15.002224489795918
