70

H 8.376	7.39	-19.37
H 7.239	7.009	-21.303
H 7.759	9.239	-21.947
H 9.432	8.82	-22.317
H 7.164	8.551	-23.849
N 9.921	6.297	-23.015
C 10.602	5.25	-23.767
C 11.636	5.863	-24.713
C 11.283	5.651	-26.172
O 10.093	5.795	-26.522
O 12.197	5.343	-26.965
H 10.221	7.226	-23.109
H 9.861	4.725	-24.351
H 11.699	6.925	-24.528
H 12.599	5.411	-24.525
C 8.429	11.036	-13.875
C 8.728	11.372	-15.332
O 7.883	11.92	-16.041
C 8.732	9.546	-13.631
C 9.546	9.368	-12.358
C 7.441	8.744	-13.565
H 9.077	11.623	-13.24
H 9.318	9.178	-14.46
H 10.595	9.494	-12.581
H 9.24	10.105	-11.63
H 9.38	8.378	-11.96
H 6.869	9.054	-12.703
H 6.864	8.916	-14.462
H 7.674	7.693	-13.484
N 9.937	11.04	-15.774
C 10.349	11.307	-17.147
C 11.029	10.09	-17.763
O 12.245	10.079	-17.958
C 11.308	12.51	-17.222
O 11.796	12.665	-18.559
C 12.478	12.329	-16.267
H 10.566	10.605	-15.161
H 9.464	11.542	-17.721
H 10.766	13.401	-16.939
H 11.243	13.293	-19.031
H 12.291	12.882	-15.359
H 13.382	12.694	-16.732
H 12.592	11.281	-16.032
N 10.238	9.067	-18.068
C 10.765	7.845	-18.664
C 10.228	7.648	-20.078
O 10.98	7.702	-21.052
C 10.414	6.608	-17.817
C 10.08	7.024	-16.383
C 11.564	5.613	-17.832
C 8.626	7.387	-16.182
H 9.277	9.135	-17.889
H 11.841	7.934	-18.708
H 9.551	6.132	-18.256
H 10.313	6.209	-15.715
H 10.678	7.884	-16.117
H 11.935	5.506	-18.841
H 12.358	5.971	-17.193
H 11.217	4.655	-17.473
H 8.041	7.0	-17.003
H 8.273	6.961	-15.255
H 8.525	8.462	-16.145
N 8.923	7.421	-20.183
C 8.285	7.214	-21.478
C 8.904	6.024	-22.205
O 8.471	4.884	-22.034
C 8.409	8.472	-22.339
O 8.045	8.209	-23.683
H 7.424510204081633	11.271836734693878	-13.62678911564626
H 11.088885906040268	4.5376241610738255	-23.091966442953023
