43

C 12.224	-2.394	-12.958
O 12.412	-1.215	-12.66
N 11.016	-2.947	-12.995
C 9.815	-2.183	-12.68
C 9.882	-1.615	-11.267
O 9.931	-0.399	-11.078
C 8.578	-3.052	-12.845
H 10.93	-3.892	-13.239
H 9.747	-1.365	-13.383
H 7.719	-2.423	-13.031
H 8.719	-3.725	-13.677
H 8.417	-3.623	-11.943
N 9.882	-2.502	-10.277
C 9.942	-2.088	-8.881
C 11.167	-1.219	-8.618
O 11.183	-0.417	-7.684
C 9.975	-3.302	-7.935
C 11.286	-4.073	-8.103
C 8.783	-4.211	-8.197
C 11.398	-5.28	-7.199
H 9.841	-3.457	-10.491
H 9.053	-1.513	-8.665
H 9.905	-2.942	-6.92
H 11.367	-4.414	-9.123
H 12.113	-3.413	-7.882
H 8.764	-4.486	-9.241
H 8.869	-5.101	-7.593
H 7.871	-3.691	-7.945
H 12.413	-5.649	-7.215
H 11.13	-5.002	-6.191
H 10.73	-6.054	-7.549
N 12.192	-1.384	-9.447
C 13.421	-0.613	-9.307
C 14.598	-1.372	-9.923
C 15.821	-0.494	-10.105
O 16.518	-0.232	-9.103
O 16.08	-0.069	-11.251
H 12.119	-2.04	-10.172
H 13.607	-0.474	-8.252
H 14.863	-2.197	-9.277
H 14.304	-1.755	-10.888
H 13.040644295302014	-3.031959731543624	-13.202993288590603
H 13.32189932885906	0.3701073825503357	-9.779523489932886
