62

C -4.324	0.099	-11.901
C -4.333	0.571	-13.351
O -5.381	0.929	-13.89
C -4.045	1.281	-10.97
C -3.352	2.446	-11.657
C -2.906	3.498	-10.656
C -4.074	4.349	-10.184
N -4.426	5.406	-11.173
H -5.292	-0.314	-11.663
H -4.982	1.635	-10.566
H -3.417	0.944	-10.158
H -2.485	2.076	-12.185
H -4.038	2.897	-12.359
H -2.465	3.006	-9.802
H -2.171	4.138	-11.124
H -4.931	3.71	-10.033
H -3.806	4.819	-9.249
H -4.996	4.998	-11.943
H -3.562	5.818	-11.579
H -4.974	6.159	-10.712
N -3.161	0.567	-13.977
C -3.036	0.993	-15.365
C -3.498	-0.103	-16.32
O -4.125	0.175	-17.343
C -1.584	1.377	-15.708
C -0.641	0.208	-15.414
C -1.165	2.613	-14.926
C 0.812	0.517	-15.7
H -2.362	0.271	-13.494
H -3.66	1.864	-15.504
H -1.536	1.613	-16.76
H -0.724	-0.059	-14.372
H -0.928	-0.637	-16.022
H -1.789	3.447	-15.21
H -1.277	2.424	-13.869
H -0.133	2.844	-15.144
H 1.168	1.256	-14.998
H 1.397	-0.384	-15.604
H 0.906	0.902	-16.706
N -3.187	-1.348	-15.978
C -3.573	-2.486	-16.803
C -5.055	-2.806	-16.638
O -5.702	-3.292	-17.566
C -2.747	-3.739	-16.456
C -3.011	-4.167	-15.011
C -1.265	-3.473	-16.673
C -3.842	-5.426	-14.897
H -2.685	-1.506	-15.151
H -3.384	-2.228	-17.835
H -3.046	-4.535	-17.121
H -2.069	-4.346	-14.517
H -3.537	-3.374	-14.499
H -0.715	-3.762	-15.79
H -0.916	-4.048	-17.517
H -1.112	-2.422	-16.865
H -4.83	-5.243	-15.29
H -3.371	-6.221	-15.456
H -3.917	-5.714	-13.858
N -5.586	-2.529	-15.452
H -5.018	-2.143	-14.752
H -3.599748299319728	-0.6631020408163265	-11.75469387755102
H -6.561591836734694	-2.709408163265306	-15.252857142857142
