76

H 1.859	-6.258	-16.009
H -0.613	-6.638	-14.078
H -0.413	-8.383	-13.926
H 0.996	-7.325	-13.852
H -0.008	-6.71	-18.298
H 1.036	-5.289	-18.235
H 1.744	-6.904	-18.23
N 2.382	-9.683	-14.351
C 3.559	-9.769	-13.495
C 4.142	-11.179	-13.512
O 4.21	-11.845	-12.48
C 3.205	-9.368	-12.062
C 2.006	-10.114	-11.5
C 2.398	-11.166	-10.481
O 3.11	-10.879	-9.518
N 1.935	-12.393	-10.689
H 1.621	-10.276	-14.179
H 4.299	-9.083	-13.879
H 4.055	-9.564	-11.426
H 2.986	-8.311	-12.041
H 1.346	-9.404	-11.025
H 1.486	-10.598	-12.314
H 1.375	-12.549	-11.478
H 2.174	-13.093	-10.046
N 4.561	-11.627	-14.691
H 4.48	-11.049	-15.479
C -2.488	-10.4	-12.477
O -1.551	-10.608	-11.706
N -3.062	-11.36	-13.194
C -2.613	-12.745	-13.117
C -1.807	-13.125	-14.355
O -1.967	-14.216	-14.903
C -3.81	-13.684	-12.963
C -3.449	-14.971	-12.248
O -2.67	-15.767	-12.815
O -3.943	-15.182	-11.121
H -3.805	-11.131	-13.791
H -1.979	-12.84	-12.248
H -4.582	-13.184	-12.396
H -4.192	-13.932	-13.943
N -0.941	-12.217	-14.793
C -0.11	-12.456	-15.967
C 0.78	-11.252	-16.258
O 1.898	-11.399	-16.751
C -0.986	-12.762	-17.184
C -2.174	-11.827	-17.328
C -3.49	-12.568	-17.156
C -3.697	-13.6	-18.254
N -3.947	-14.958	-17.698
H -0.859	-11.366	-14.314
H 0.517	-13.31	-15.761
H -0.382	-12.683	-18.076
H -1.358	-13.773	-17.099
H -2.107	-11.055	-16.577
H -2.15	-11.379	-18.311
H -3.488	-13.071	-16.201
H -4.301	-11.854	-17.187
H -4.544	-13.304	-18.853
H -2.812	-13.63	-18.872
H -4.279	-15.596	-18.45
H -4.672	-14.912	-16.954
H -3.072	-15.345	-17.291
N 0.277	-10.062	-15.948
C 1.027	-8.833	-16.174
C 2.316	-8.818	-15.358
O 3.229	-8.041	-15.637
C 0.192	-7.589	-15.817
C 0.848	-6.328	-16.383
C 0.029	-7.476	-14.308
C 0.909	-6.305	-17.895
H -0.62	-10.009	-15.557
H 1.278	-8.784	-17.224
H -0.788	-7.704	-16.253
H 0.289	-5.464	-16.062
H -2.8851543624161073	-9.419328859060402	-12.601241610738255
H 4.961367346938776	-12.549857142857144	-14.795775510204082
