58

H 8.151	-8.21	-23.167
H 10.287	-7.552	-23.131
H 10.65	-9.078	-23.94
H 10.59	-8.041	-26.085
H 9.937	-6.548	-25.411
H 12.136	-6.616	-24.038
H 12.134	-6.015	-25.619
H 12.678	-7.587	-25.313
C 6.603	-9.077	-19.672
O 5.735	-9.836	-19.24
N 6.345	-7.836	-20.071
C 4.998	-7.281	-20.022
C 4.226	-7.612	-21.297
O 3.081	-8.061	-21.245
C 5.054	-5.765	-19.825
C 4.697	-5.327	-18.434
C 5.5	-5.669	-17.358
C 3.557	-4.574	-18.202
C 5.173	-5.268	-16.076
C 3.225	-4.17	-16.922
C 4.035	-4.517	-15.858
H 7.08	-7.28	-20.407
H 4.488	-7.726	-19.182
H 6.056	-5.419	-20.034
H 4.365	-5.295	-20.51
H 6.392	-6.255	-17.527
H 2.923	-4.302	-19.034
H 5.808	-5.54	-15.246
H 2.334	-3.583	-16.755
H 3.777	-4.203	-14.858
N 4.863	-7.385	-22.442
C 4.238	-7.656	-23.73
C 4.992	-8.742	-24.49
O 4.602	-9.129	-25.591
C 4.172	-6.387	-24.601
O 3.74	-6.723	-25.924
C 5.53	-5.704	-24.664
H 5.774	-7.026	-22.418
H 3.228	-7.994	-23.547
H 3.461	-5.703	-24.16
H 2.942	-6.231	-26.135
H 5.473	-4.85	-25.323
H 6.266	-6.399	-25.038
H 5.813	-5.376	-23.675
N 6.075	-9.23	-23.894
C 6.884	-10.273	-24.513
C 8.368	-9.911	-24.433
C 8.621	-8.448	-24.112
C 10.107	-8.147	-24.014
C 10.601	-7.381	-25.231
N 11.984	-6.864	-25.037
H 6.335	-8.881	-23.016
H 6.595	-10.346	-25.551
H 8.833	-10.512	-23.666
H 8.833	-10.134	-25.383
H 8.191	-7.838	-24.892
H 7.617174496644295	-9.393187919463086	-19.745288590604027
H 6.710214765100671	-11.241026845637585	-24.029704697986578
