51

C -7.092	15.162	4.916
C -5.734	15.787	4.604
O -5.005	16.177	5.516
C -6.907	13.955	5.836
C -6.335	14.339	7.186
O -5.19	14.837	7.227
O -7.032	14.142	8.203
H -7.636	13.898	3.323
H -7.699	15.888	5.419
H -7.864	13.481	5.992
H -6.234	13.253	5.366
N -5.399	15.892	3.322
C -4.124	16.482	2.923
C -3.042	16.15	3.951
C -1.775	15.515	3.376
C -0.554	15.946	4.173
C -1.899	13.999	3.364
H -6.019	15.572	2.633
H -4.254	17.55	2.892
H -2.765	17.063	4.459
H -3.463	15.47	4.674
H -1.643	15.849	2.357
H 0.341	15.709	3.616
H -0.538	15.424	5.118
H -0.597	17.011	4.349
H -2.613	13.702	2.61
H -2.234	13.658	4.333
H -0.937	13.561	3.142
C -9.374	15.069	1.874
C -8.679	15.589	3.13
O -8.944	16.707	3.576
C -10.795	14.617	2.217
C -11.251	13.4	1.43
C -11.091	13.61	-0.066
C -12.413	13.438	-0.797
N -13.465	14.348	-0.265
H -9.428	15.866	1.152
H -10.84	14.378	3.269
H -11.477	15.429	2.01
H -10.659	12.547	1.729
H -12.292	13.212	1.65
H -10.723	14.609	-0.242
H -10.383	12.89	-0.448
H -12.261	13.652	-1.845
H -12.742	12.416	-0.684
H -14.365	13.835	-0.171
H -13.603	15.152	-0.91
H -13.186	14.71	0.668
N -7.801	14.776	3.708
H -8.8331768707483	14.273414965986396	1.4314421768707484
H -3.809463087248322	16.13802013422819	1.931275167785235
