50

N 6.21	13.898	-11.412
C 7.18	12.906	-10.955
C 8.609	13.405	-11.085
C 9.052	13.536	-12.528
O 9.522	12.574	-13.136
N 8.345	14.492	-13.124
C 8.71	15.087	-14.406
C 9.078	16.557	-14.27
S 10.844	16.814	-14.562
H 2.018	13.173	-11.282
H 2.317	12.519	-9.669
H 3.03	15.646	-8.453
H 1.873	15.826	-9.771
H 3.515	16.445	-9.949
H 4.719	14.433	-8.47
H 5.173	13.295	-9.739
H 3.874	12.893	-8.616
H 3.171	14.211	-12.076
H 3.879	15.959	-12.821
H 6.447	14.844	-11.313
H 7.069	12.01	-11.547
H 6.984	12.677	-9.918
H 8.683	14.373	-10.612
H 9.266	12.709	-10.584
H 7.535	14.823	-12.683
H 9.556	14.554	-14.812
H 7.873	15.001	-15.082
H 8.522	17.133	-14.993
H 8.843	16.892	-13.27
H 11.219	15.982	-14.859
C 1.148	11.013	-6.291
C 0.971	11.621	-7.683
O 0.14	12.77	-7.636
H 0.254	10.481	-6.021
H 1.935	11.906	-8.076
H 0.517	10.892	-8.338
P 0.968	14.053	-8.144
O 0.278	15.394	-7.584
O 2.483	13.962	-7.603
O 0.976	14.083	-9.754
C 2.145	13.42	-10.239
C 3.349	14.33	-10.093
C 2.911	15.656	-9.527
C 4.35	13.693	-9.163
C 3.989	14.547	-11.456
O 4.031	15.909	-11.874
C 5.034	13.586	-11.947
O 4.732	12.44	-12.281
H 1.3052244897959184	11.775102040816327	-5.569659863945578
H 1.9860469798657718	10.3128322147651	-6.292436241610739
