53

C 4.031	-7.439	-1.07
O 4.189	-8.655	-1.181
C 5.827	-5.85	-1.785
C 6.826	-5.797	-2.929
C 6.517	-4.694	-3.922
O 7.326	-3.791	-4.137
N 5.341	-4.762	-4.535
H 3.688	-4.535	-2.168
H 4.616	-7.047	-3.084
H 5.646	-4.841	-1.446
H 6.265	-6.42	-0.979
H 7.812	-5.627	-2.522
H 6.81	-6.744	-3.448
H 4.746	-5.509	-4.315
H 5.115	-4.062	-5.182
N 3.462	-6.878	-0.005
H 3.366	-5.911	0.033
C 1.605	-2.931	0.306
C 1.401	-4.013	-0.745
O 1.15	-5.171	-0.418
C 0.276	-2.179	0.519
C 0.272	-0.87	-0.272
C 0.053	-1.91	1.999
C 0.654	0.337	0.555
H 1.89	-3.393	1.239
H -0.527	-2.808	0.167
H 0.973	-0.947	-1.089
H -0.719	-0.701	-0.67
H 0.598	-1.026	2.291
H 0.403	-2.754	2.574
H -1.0	-1.762	2.183
H -0.119	0.535	1.283
H 0.768	1.195	-0.092
H 1.587	0.144	1.064
N 1.528	-3.628	-2.011
C 1.366	-4.569	-3.11
C 2.308	-5.748	-2.934
O 1.971	-6.887	-3.257
C 1.634	-3.877	-4.447
C 0.905	-4.512	-5.62
C 1.695	-5.639	-6.254
O 2.932	-5.51	-6.366
O 1.076	-6.654	-6.639
H 1.739	-2.692	-2.209
H 0.352	-4.929	-3.093
H 1.321	-2.846	-4.374
H 2.694	-3.909	-4.649
H -0.039	-4.904	-5.271
H 0.724	-3.753	-6.368
N 3.489	-5.461	-2.407
C 4.49	-6.488	-2.17
H 2.3809319727891154	-2.2715306122448977	0.013387755102040766
H 3.1317142857142857	-7.433102040816326	0.7679795918367346
