52

C 2.986	-7.678	1.109
C 1.462	-7.79	1.109
O 0.833	-7.825	2.167
C 3.463	-7.08	2.434
C 2.435	-6.181	3.101
C 3.057	-4.952	3.734
O 4.011	-4.4	3.146
O 2.593	-4.543	4.819
H 3.406	-8.655	0.999
H 3.702	-7.884	3.113
H 4.354	-6.497	2.253
H 1.719	-5.86	2.359
H 1.927	-6.746	3.87
N 0.874	-7.851	-0.082
C -0.571	-7.962	-0.216
C -0.973	-8.901	-1.357
O -2.102	-9.389	-1.392
C -1.2	-6.585	-0.437
C -1.748	-5.966	0.817
C -2.886	-6.478	1.417
C -1.125	-4.871	1.394
C -3.395	-5.91	2.569
C -1.629	-4.298	2.546
C -2.765	-4.818	3.134
H 1.422	-7.812	-0.88
H -0.941	-8.367	0.705
H -0.458	-5.917	-0.841
H -2.014	-6.679	-1.141
H -3.38	-7.332	0.976
H -0.236	-4.463	0.935
H -4.284	-6.318	3.027
H -1.134	-3.445	2.987
H -3.161	-4.372	4.035
N -0.057	-9.149	-2.292
C -0.345	-10.024	-3.422
C -0.804	-11.417	-2.951
C -0.064	-11.816	-1.677
C -0.584	-12.448	-4.047
C -0.97	-11.967	-0.475
H 0.824	-8.735	-2.226
H 0.564	-10.14	-3.995
H -1.86	-11.37	-2.742
H 0.436	-12.76	-1.838
H 0.669	-11.06	-1.448
H -1.334	-13.221	-3.97
H 0.397	-12.886	-3.938
H -0.659	-11.97	-5.013
H -1.728	-12.706	-0.687
H -1.441	-11.02	-0.259
H -0.386	-12.282	0.378
H 3.3324761904761906	-7.095687074829932	0.2981292517006803
H -1.1176979865771814	-9.590973154362416	-4.064
