54

N -4.044	2.382	-9.809
C -5.108	2.393	-10.806
C -6.406	2.924	-10.206
O -6.477	3.213	-9.011
C -5.329	0.985	-11.364
C -4.319	0.623	-12.435
O -3.876	1.534	-13.165
O -3.97	-0.571	-12.543
H -3.272	2.973	-9.929
H -4.804	3.046	-11.61
H -5.246	0.269	-10.56
H -6.318	0.926	-11.793
N -7.432	3.049	-11.042
C -8.727	3.545	-10.591
C -9.036	3.052	-9.182
O -9.799	3.679	-8.447
C -9.83	3.101	-11.553
C -9.336	2.237	-12.672
N -9.44	0.862	-12.663
C -8.733	2.558	-13.841
C -8.921	0.375	-13.776
N -8.486	1.384	-14.508
H -7.315	2.803	-11.983
H -8.683	4.624	-10.58
H -10.573	2.542	-11.006
H -10.292	3.976	-11.988
H -9.835	0.322	-11.946
H -8.49	3.554	-14.185
H -8.864	-0.67	-14.043
H -7.981	1.299	-15.343
N -8.439	1.923	-8.812
C -8.652	1.344	-7.493
C -8.068	2.238	-6.404
O -8.706	2.484	-5.38
C -8.023	-0.048	-7.417
C -9.041	-1.155	-7.616
O -9.883	-1.028	-8.529
O -8.995	-2.147	-6.859
H -7.844	1.469	-9.441
H -9.716	1.257	-7.339
H -7.268	-0.138	-8.183
H -7.563	-0.177	-6.447
N -6.851	2.722	-6.632
C -6.182	3.588	-5.671
C -4.707	3.723	-6.018
H -6.392	2.491	-7.464
H -6.259	3.125	-4.702
H -4.6	4.317	-6.913
H -4.285	2.743	-6.183
H -4.188	4.205	-5.202
C -4.097	1.59	-8.744
O -5.032	0.821	-8.526
H -3.274073825503356	1.6528187919463087	-8.072536912751678
H -6.656677852348993	4.5725436241610735	-5.631503355704698
