49

H -12.199	7.176	-2.318
H -13.729	6.5	-2.751
N -11.028	8.1	1.887
C -10.832	8.071	3.332
C -9.819	7.001	3.725
O -9.676	5.985	3.044
C -12.163	7.814	4.042
O -13.249	8.332	3.295
H -11.31	7.283	1.427
H -10.454	9.035	3.635
H -12.303	6.751	4.167
H -12.148	8.29	5.012
H -13.223	7.977	2.404
N -9.117	7.238	4.828
C -8.117	6.297	5.315
C -7.341	6.871	6.516
C -7.0	8.344	6.276
C -6.077	6.063	6.766
C -5.666	8.552	5.592
H -9.276	8.064	5.328
H -7.417	6.113	4.514
H -7.967	6.792	7.391
H -7.763	8.788	5.655
H -6.972	8.858	7.225
H -5.855	5.464	5.895
H -6.224	5.419	7.619
H -5.253	6.734	6.96
H -4.885	8.098	6.183
H -5.474	9.61	5.492
H -5.689	8.095	4.613
C -10.055	7.346	-1.65
O -9.234	8.121	-2.141
N -10.974	7.729	-0.769
C -11.075	9.103	-0.321
C -10.834	9.209	1.181
O -10.48	10.273	1.689
C -12.447	9.68	-0.674
C -12.769	9.621	-2.158
C -13.695	8.473	-2.508
O -14.883	8.672	-2.757
N -13.153	7.26	-2.528
H -11.595	7.074	-0.417
H -10.319	9.661	-0.835
H -13.206	9.126	-0.141
H -12.482	10.713	-0.36
H -13.243	10.547	-2.447
H -11.847	9.502	-2.708
H -10.061281879194631	6.316469798657718	-1.9180268456375837
H -8.57803355704698	5.349080536912751	5.609429530201342
