58

H 7.594	3.349	0.174
C 3.483	7.154	6.07
O 4.016	8.184	5.654
N 3.276	6.919	7.362
C 3.671	7.879	8.387
C 5.145	8.246	8.251
O 5.505	9.424	8.258
C 3.403	7.308	9.781
C 1.986	6.788	9.962
C 1.075	7.253	8.838
C -0.387	7.211	9.253
N -1.292	7.602	8.136
H 2.847	6.08	7.633
H 3.076	8.77	8.252
H 4.088	6.494	9.961
H 3.576	8.082	10.513
H 2.008	5.706	9.971
H 1.597	7.153	10.904
H 1.334	8.267	8.573
H 1.216	6.607	7.983
H -0.631	6.207	9.566
H -0.533	7.891	10.079
H -1.615	6.756	7.624
H -0.792	8.227	7.473
H -2.122	8.105	8.509
N 5.992	7.231	8.131
C 7.425	7.441	7.998
C 7.807	7.72	6.572
O 8.98	7.946	6.271
C 8.183	6.199	8.424
C 8.814	5.48	7.252
O 9.975	5.711	6.916
N 8.047	4.603	6.625
H 5.648	6.321	8.136
H 7.707	8.263	8.62
H 8.961	6.478	9.1
H 7.503	5.523	8.904
H 7.134	4.474	6.953
H 8.422	4.125	5.86
N 6.843	7.662	5.685
C 7.149	7.869	4.3
C 6.03	7.333	3.405
C 6.468	6.217	2.5
C 7.182	5.14	3.002
C 6.166	6.244	1.148
C 7.587	4.112	2.172
C 6.568	5.219	0.313
C 7.279	4.151	0.825
H 5.929	7.444	5.961
H 8.05	7.305	4.122
H 5.229	6.961	4.026
H 5.657	8.136	2.787
H 7.423	5.108	4.054
H 5.61	7.079	0.747
H 8.143	3.278	2.575
H 6.326	5.252	-0.739
H 3.1598322147651006	6.395288590604027	5.395744966442953
H 7.3371476510067115	8.926791946308725	4.089590604026846
