28

C         0.5900454910    0.4896085900    1.6384866619
C        -0.5900454910   -0.4896085900    1.6384866619
C        -1.5032088856   -0.4163890808    0.4383911876
C         1.5032088856    0.4163890808    0.4383911876
C        -1.4212856021   -1.3547710700   -0.5833107420
C        -2.2709811416   -1.2711350297   -1.6780507173
C        -3.2062571828   -0.2506028376   -1.7617462148
C        -3.2929646993    0.6874034821   -0.7417341621
C        -2.4485091374    0.6023099093    0.3546448921
H        -0.6972946864   -2.1528751433   -0.5211043697
H        -2.2003218597   -2.0079589239   -2.4671879682
H        -3.8683043273   -0.1878842565   -2.6152686072
H        -4.0235958497    1.4835501806   -0.7960656664
H        -2.5235230085    1.3341486205    1.1474111339
C         1.4212856021    1.3547710700   -0.5833107420
C         2.2709811416    1.2711350297   -1.6780507173
C         3.2062571828    0.2506028376   -1.7617462148
C         3.2929646993   -0.6874034821   -0.7417341621
C         2.4485091374   -0.6023099093    0.3546448921
H         0.6972946864    2.1528751433   -0.5211043697
H         2.2003218597    2.0079589239   -2.4671879682
H         3.8683043273    0.1878842565   -2.6152686072
H         4.0235958497   -1.4835501806   -0.7960656664
H         2.5235230085   -1.3341486205    1.1474111339
H        -1.1618670967   -0.3041048528    2.5473108434
F        -0.0474806051   -1.7469549818    1.7520844602
F         0.0474806051    1.7469549818    1.7520844602
H         1.1618670967    0.3041048528    2.5473108434
