17

C 0.0	-1.2518714041	1.218751471
C 0.0	0.0	2.1070507747
C 0.0	1.2518714041	1.218751471
C 1.2531471736	-1.2497982026	0.332447588
C -1.2531471736	-1.2497982026	0.332447588
H 0.0	-2.1476568686	1.8460699855
H -0.8785005937	0.0	2.7596847559
H 0.8785005937	0.0	2.7596847559
H 0.0	2.1476568686	1.8460699855
H 1.2755202049	-2.1527788018	-0.2864958625
H 2.1530464917	-1.2739115238	0.9556394594
H -1.2755202049	-2.1527788018	-0.2864958625
H -2.1530464917	-1.2739115238	0.9556394594
H 0.8821496551	1.2504119793598685	0.5948401849407894
H -0.8821496551	1.2504119793598685	0.5948401849407894
H 1.269798186475658	-0.3700060468223684	-0.3022804960210526
H -1.269798186475658	-0.3700060468223684	-0.3022804960210526
