6

C 0.864902609	0.4490311027	1.6735101007
C 1.6133666691	0.0534467386	0.6424525387
H 1.1041230172	1.414172851	2.1050323416
H 0.03461895704383555	-0.02644503866438358	2.1236883089520546
H 2.4407855163273977	0.6472916694821919	0.32558602609726023
H 1.4408106117739725	-0.8453347017616439	0.08892698330273963
