12

C 1.3711245117	-1.2083041296	-0.1346121833
C 0.2476549858	-1.3916742031	-0.9412593882
C 0.063694844	-2.5897627909	-1.6335312861
C 0.9925160657	-3.6053487109	-1.5285297195
C 2.1233590658	-3.4296905666	-0.7362547394
C 2.3086414395	-2.2408915254	-0.0554274137
H -0.8093030719	-2.700278721	-2.2572067571
H 0.8450501106	-4.5293461605	-2.0712447719
H 2.8604015947	-4.2176770735	-0.6566805484
H 3.1897429143	-2.1025279258	0.556437532
H 1.5436805690260273	-0.30952268923835613	0.4189133720972603
H -0.3984617164555556	-0.5990663176222221	-1.0351373791166667
