7

C -2.3934192829	0.4200781428	-0.5283407508
O -2.8859977424	1.4540234663	-0.2027055979
C -2.3379067524	-0.0164190486	-1.9735628158
H -2.7204199812	-1.0319621511	-2.0869858875
H -1.3013002803	-0.0173649947	-2.3184114165
H -2.9168186995	0.6744147541	-2.5817021064
H -2.0007093652302013	-0.2586285041744967	0.19706453191140938
