56

C -5.805	17.999	5.989
C -4.288	17.373	8.289
C -6.11	16.905	6.776
C -5.355	16.603	7.917
H -1.694	21.216	3.793
H -3.952	19.711	2.818
H -4.686	21.775	4.838
H -5.58	20.357	4.306
H -2.431	21.142	6.415
H -2.31	19.428	8.331
H -6.39	18.212	5.108
H -3.716	17.126	9.172
H -6.945	16.271	6.516
H -5.629	15.737	8.502
C -2.905	23.069	0.614
N -2.856	21.922	1.559
C -3.565	22.624	-0.701
O -4.484	23.629	-1.136
H -3.488	23.875	1.055
H -1.892	23.418	0.414
H -2.114	21.208	1.562
H -2.799	22.478	-1.462
H -4.1	21.691	-0.539
H -4.776	23.43	-2.029
C 1.268	18.693	2.892
O 1.523	19.878	2.688
N 0.397	18.28	3.78
C -0.364	19.202	4.616
C -0.273	18.772	6.083
C 1.149	18.575	6.614
C 1.196	17.409	7.592
C 1.655	19.848	7.276
C -1.826	19.259	4.186
O -2.528	18.254	4.216
H 0.279	17.315	3.885
H 0.07	20.185	4.51
H -0.761	19.522	6.688
H -0.805	17.838	6.196
H 1.807	18.343	5.789
H 0.254	16.882	7.568
H 1.992	16.736	7.312
H 1.374	17.783	8.589
H 0.815	20.458	7.571
H 2.239	19.591	8.148
H 2.272	20.395	6.578
N -2.289	20.438	3.793
C -3.675	20.597	3.367
C -3.841	21.811	2.46
O -4.796	22.588	2.575
C -4.603	20.731	4.574
C -4.142	19.986	5.79
C -3.084	20.304	6.586
C -4.723	18.804	6.347
N -2.983	19.406	7.621
C -3.98	18.474	7.495
H 1.7628724832214766	17.916140939597316	2.3713020134228184
