47

C -0.412	-0.839	2.366
C 0.918	-1.316	2.998
O 1.671	-0.544	3.595
H -0.662	-1.477	1.543
H -1.191	-0.884	3.097
N 1.152	-2.626	2.841
C 2.355	-3.261	3.377
C 2.875	-4.335	2.43
O 2.943	-5.509	2.79
C 2.065	-3.862	4.745
H 0.499	-3.184	2.362
H 3.119	-2.503	3.501
H 1.165	-3.421	5.147
H 1.931	-4.929	4.648
H 2.893	-3.66	5.409
N 3.252	-3.928	1.223
C 3.777	-4.869	0.236
C 5.33	-4.771	0.108
C 5.77	-3.605	-0.78
C 5.992	-4.657	1.481
C 3.131	-4.678	-1.133
O 2.949	-3.552	-1.598
H 3.184	-2.977	0.996
H 3.537	-5.868	0.58
H 5.68	-5.683	-0.352
H 5.186	-3.594	-1.687
H 5.637	-2.674	-0.251
H 6.814	-3.725	-1.032
H 5.303	-4.216	2.188
H 6.285	-5.638	1.826
H 6.868	-4.031	1.403
N 2.803	-5.793	-1.776
C 2.193	-5.775	-3.097
C 3.3	-5.747	-4.192
C 2.876	-6.419	-5.494
C 3.731	-4.312	-4.455
H 2.984	-6.662	-1.352
H 1.602	-4.875	-3.18
H 4.155	-6.282	-3.811
H 1.799	-6.443	-5.556
H 3.274	-5.865	-6.332
H 3.263	-7.428	-5.513
H 3.962	-3.829	-3.517
H 4.606	-4.308	-5.087
H 2.929	-3.779	-4.946
H -0.3078157894736842	0.18453947368421053	2.0098026315789475
H 1.5395100671140938	-6.649671140939597	-3.2004093959731543
