42

C 1.283	-6.993	-3.241
O 1.679	-8.021	-3.789
N 0.079	-6.893	-2.69
C -0.849	-8.011	-2.72
C -2.082	-7.776	-3.656
C -3.308	-7.267	-2.902
C -1.738	-6.839	-4.812
C -1.291	-8.371	-1.301
O -0.714	-7.906	-0.324
H -0.171	-6.065	-2.218
H -0.308	-8.852	-3.109
H -2.347	-8.732	-4.085
H -2.989	-6.779	-1.991
H -3.849	-6.568	-3.519
H -3.952	-8.11	-2.654
H -0.666	-6.788	-4.938
H -2.186	-7.214	-5.721
H -2.125	-5.852	-4.606
N -2.34	-9.165	-1.213
C -2.915	-9.567	0.043
C -4.397	-9.761	-0.18
C -5.175	-9.851	1.094
C -5.728	-10.965	1.652
C -5.465	-8.776	1.975
N -6.363	-10.636	2.826
C -6.211	-9.294	3.046
C -5.166	-7.424	1.95
C -6.662	-8.494	4.092
C -5.609	-6.626	2.987
C -6.351	-7.163	4.047
H -2.775	-9.459	-2.032
H -2.78	-8.768	0.755
H -4.776	-8.936	-0.766
H -4.536	-10.661	-0.728
H -5.671	-11.95	1.221
H -6.841	-11.26	3.411
H -4.595	-7.002	1.135
H -7.235	-8.896	4.916
H -5.383	-5.574	2.989
H -6.678	-6.503	4.836
H 1.9181677852348993	-6.142852348993289	-3.140489932885906
H -2.4848456375838923	-10.502711409395973	0.4178590604026845
