49

O 2.213	-15.829	-1.087
C 3.641	-13.897	0.698
C 4.965	-13.334	0.297
C 5.674	-13.683	-0.8
C 5.717	-12.306	0.949
N 6.847	-12.973	-0.861
C 6.897	-12.116	0.205
C 5.517	-11.539	2.094
C 7.869	-11.191	0.571
C 6.48	-10.617	2.459
C 7.646	-10.453	1.7
H 0.611	-14.105	0.287
H 2.835	-12.66	-0.832
H 3.358	-13.463	1.646
H 3.744	-14.97	0.806
H 5.345	-14.42	-1.502
H 7.533	-13.064	-1.555
H 4.622	-11.647	2.681
H 8.773	-11.052	-0.004
H 6.341	-10.016	3.344
H 8.373	-9.722	2.021
N 2.637	-14.283	-2.656
H 2.797	-13.333	-2.838
C -2.316	-10.87	0.565
O -3.011	-11.879	0.663
N -1.042	-10.846	0.918
C -0.386	-12.038	1.451
C -0.285	-11.935	2.973
C -1.484	-11.256	3.642
C -2.508	-12.291	4.078
C -1.037	-10.415	4.828
C 0.994	-12.219	0.834
O 1.802	-11.316	0.843
H -0.541	-10.011	0.842
H -1.002	-12.883	1.201
H -0.187	-12.933	3.376
H 0.603	-11.374	3.219
H -1.959	-10.599	2.927
H -2.149	-13.279	3.834
H -2.663	-12.216	5.144
H -3.442	-12.11	3.566
H -0.454	-11.024	5.503
H -0.437	-9.588	4.479
H -1.908	-10.035	5.345
N 1.276	-13.381	0.286
C 2.569	-13.588	-0.34
C 2.477	-14.677	-1.397
H -2.7340939597315437	-9.960523489932886	0.2006510067114094
H 2.5481836734693877	-14.92691836734694	-3.434530612244898
