69

C -3.441	-15.284	1.886
C -4.907	-14.802	1.691
C -5.597	-14.685	3.046
C -5.746	-15.699	0.759
C -1.16	-15.754	1.044
O -0.467	-14.893	1.575
H -2.584	-13.376	0.233
H -2.943	-16.291	0.044
H -3.444	-16.221	2.428
H -2.932	-14.56	2.501
H -4.886	-13.814	1.254
H -5.092	-15.312	3.767
H -5.565	-13.659	3.381
H -6.625	-15.001	2.956
H -5.735	-16.725	1.105
H -6.768	-15.345	0.759
H -5.365	-15.651	-0.25
N -0.714	-16.955	0.777
C 0.65	-17.319	1.105
C 0.806	-17.553	2.581
C 2.158	-17.174	3.079
C 3.236	-17.987	3.226
C 2.573	-15.875	3.474
N 4.302	-17.269	3.718
C 3.915	-15.962	3.877
C 1.925	-14.65	3.53
C 4.626	-14.854	4.333
C 2.624	-13.546	3.981
C 3.965	-13.655	4.379
H -1.306	-17.603	0.338
H 1.281	-16.491	0.818
H 0.071	-16.967	3.114
H 0.653	-18.586	2.775
H 3.232	-19.038	2.993
H 5.191	-17.63	3.917
H 0.895	-14.56	3.219
H 5.658	-14.924	4.643
H 2.137	-12.583	4.032
H 4.474	-12.767	4.726
C -0.567	-11.592	-3.039
O -1.231	-10.614	-2.775
N -1.028	-12.808	-2.829
C -2.353	-12.99	-2.257
C -2.438	-14.323	-1.524
O -2.334	-15.38	-2.131
C -3.429	-12.872	-3.328
C -4.686	-12.272	-2.784
C -5.465	-12.81	-1.82
C -5.286	-11.022	-3.135
N -6.548	-12.002	-1.571
C -6.458	-10.893	-2.366
C -4.958	-10.01	-4.032
C -7.301	-9.79	-2.471
C -5.791	-8.913	-4.135
C -6.953	-8.811	-3.36
H -0.479	-13.591	-3.05
H -2.502	-12.196	-1.537
H -3.069	-12.24	-4.128
H -3.661	-13.854	-3.72
H -5.251	-13.743	-1.344
H -7.262	-12.188	-0.927
H -4.063	-10.067	-4.623
H -8.2	-9.699	-1.88
H -5.551	-8.118	-4.827
H -7.576	-7.936	-3.473
N -2.561	-14.256	-0.2
C -2.584	-15.461	0.63
H 0.41436912751677846	-11.490791946308724	-3.4382483221476514
H 0.9616644295302015	-18.193671140939596	0.5427114093959732
