49

H -6.194	18.13	-1.344
H -7.075	16.471	-3.103
H -4.99	13.818	1.011
H -7.229	13.661	-3.436
H -5.528	11.659	-0.07
H -6.623	11.591	-2.255
N -2.204	18.301	-0.512
C -1.709	19.501	-1.182
C -1.756	19.308	-2.699
C -3.129	18.943	-3.262
C -2.989	17.958	-4.413
C -3.87	20.194	-3.713
C -0.285	19.833	-0.746
O 0.627	19.031	-0.923
H -1.836	17.425	-0.745
H -2.358	20.321	-0.915
H -1.427	20.224	-3.168
H -1.064	18.52	-2.96
H -3.715	18.47	-2.488
H -2.119	17.34	-4.253
H -3.87	17.336	-4.464
H -2.878	18.502	-5.339
H -3.177	21.02	-3.773
H -4.31	20.02	-4.683
H -4.648	20.427	-3.001
N -0.093	21.016	-0.179
H -0.851	21.624	-0.064
C -2.859	15.509	2.694
O -3.248	14.538	2.052
N -2.96	16.738	2.243
C -3.549	16.986	0.943
C -3.158	18.341	0.385
O -3.722	19.375	0.734
C -5.052	16.872	1.009
C -5.662	16.343	-0.252
C -6.172	17.056	-1.297
C -5.814	14.972	-0.595
N -6.653	16.201	-2.261
C -6.442	14.912	-1.85
C -5.482	13.792	0.052
C -6.746	13.704	-2.471
C -5.778	12.588	-0.559
C -6.407	12.552	-1.812
H -2.627	17.48	2.784
H -3.181	16.225	0.273
H -5.321	16.21	1.817
H -5.449	17.84	1.197
H -2.406006711409396	15.38196644295302	3.639771812080537
H 0.8256938775510205	21.302571428571426	0.13463265306122452
