33

C 1.231	21.429	0.273
C 1.138	22.497	1.359
O 1.928	23.446	1.408
C 2.06	21.963	-0.892
C 1.788	21.289	-2.201
C 0.677	21.431	-2.976
C 2.647	20.378	-2.893
N 0.798	20.681	-4.121
C 2.0	20.024	-4.092
C 3.901	19.833	-2.618
C 2.571	19.151	-5.016
C 4.466	18.965	-3.533
C 3.803	18.635	-4.722
H 1.723	20.561	0.678
H 1.855	23.015	-1.014
H 3.107	21.833	-0.662
H -0.166	22.048	-2.714
H 0.133	20.625	-4.838
H 4.42	20.068	-1.703
H 2.074	18.887	-5.937
H 5.438	18.535	-3.338
H 4.283	17.952	-5.408
C -0.066	23.257	3.316
N 0.13	22.281	2.212
C 0.753	22.817	4.543
O 0.053	23.172	5.736
H -1.122	23.3	3.581
H 0.268	24.243	2.991
H -0.462	21.451	2.064
H 1.724	23.314	4.53
H 0.898	21.737	4.514
H -0.208	22.376	6.205
H 0.26727210884353747	21.12838095238095	-0.05600680272108843
