36

C         0.0110812325   -2.5062922341   -0.1182652280
C        -0.7169094130   -3.5167773063    0.3359797404
H        -1.4792652213   -3.3727788724    1.0923330946
H        -0.5707780906   -4.5281810852   -0.0230799987
C         1.0730239430   -2.6834769838   -1.1725052654
H         2.0510271919   -2.3859924698   -0.7899299444
H         1.1289633725   -3.7208036525   -1.5010904284
H         0.8666671553   -2.0575499139   -2.0434167285
C        -0.1745455206   -1.1133238475    0.4540494500
N        -0.4127037901   -0.0916870601   -0.5639357395
C        -1.7105704225   -0.1662774538   -1.2411525412
C        -2.8985319269    0.2187888470   -0.3770717357
C        -3.8492415191   -0.7323963252   -0.0241775127
C        -4.9508828955   -0.3883021893    0.7520122622
C        -5.1117305700    0.9172086838    1.1853080114
C        -4.1687003643    1.8772561353    0.8349857156
C        -3.0733114972    1.5335780781    0.0591395332
H        -3.7327856929   -1.7555893135   -0.3591528730
H        -5.6801784625   -1.1432127643    1.0155635397
H        -5.9673004105    1.1896395356    1.7892761138
H        -4.2923726063    2.9010921938    1.1633147692
H        -2.3495781523    2.2853128048   -0.2218645922
C         0.3134013699    1.0408653150   -0.7407072157
C         1.7038723473    1.1718516829   -0.2196312673
O        -0.1082119776    1.9948146049   -1.3444051956
C         2.4213425752    2.3081040057   -0.1417759775
C         3.7186190490    1.9418259678    0.3555123786
C         3.6540155525    0.6109650666    0.5184572065
H         2.0673203161    3.2855944881   -0.4162537257
H         4.5651533371    2.5744105586    0.5541765591
O         2.4650517009    0.1202057417    0.1851344478
Cl        4.8138350552   -0.5157600972    1.0647823907
H        -1.0219802155   -1.1155017716    1.1394022490
H         0.6995506365   -0.8455171075    1.0334789891
H        -1.6610131684    0.4760482473   -2.1130202811
H        -1.8377958733   -1.1914528967   -1.5845179631
