12

H 0.2638339407	-2.815535431	0.7064067307
H 2.1128020053	-1.1452757005	-2.0199429414
H 1.5546139997	-2.7010688228	-1.3869130138
H 2.9823373279	-1.9139021107	-0.6895232157
O -0.1307642046	-0.8375536345	-0.8154520993
C 1.0987086844	-1.0147508442	-0.1041444391
C 0.8366583471	-1.9646133933	1.0764646575
C 1.9932636526	-1.7391896521	-1.1157108509
H 0.2686108727	-1.5024359407	1.8807334855
H 1.7683892598	-2.343594505	1.492399042
H -0.9529233869920863	-0.5820320538	-0.42584096007482014
H 1.5782071698322149	-0.05670005379731535	0.1896113224422819
