15

C 1.7664215286	0.3193572658	0.3049173223
C 1.7002522913	1.4441354791	-0.4147518453
C 1.0103629496	1.6126708846	-1.752904289
C 2.3382992029	2.7501201562	0.0248803182
C 2.6068256443	0.2257539593	1.5664181874
H 0.0939598607	2.1984306514	-1.6328821921
H 0.7492407236	0.6846542327	-2.2421732014
H 1.6664761638	2.1860210028	-2.4146980167
H 2.4898620501	2.8333183661	1.0974180784
H 3.3042263422	2.8968699994	-0.4695456822
H 1.700504703	3.5837760196	-0.2776310637
H 3.247067953	1.0901891705	1.7033506795
H 3.2647613368	-0.6448964305	1.5234877967
H 1.9955338508	0.1151344577	2.465872971
H 1.3003669259369128	-0.6118322874885904	0.019397703604698002
