52

C 1.6026451535	0.6796188016	0.4106572182
C 0.0582964198	0.6441274056	0.1371622096
C 0.1707279933	-0.8579428587	0.2443646565
C 1.7059795737	-0.5750342365	-0.1021321201
C 2.8026424985	-1.4032126636	-0.7909405345
C 3.7312421457	-2.1527535818	0.1841395107
C 2.1315549855	-2.4299996317	-1.7185018624
C 3.6653824701	-0.4944909483	-1.687241524
C 2.4695369045	1.8596327185	0.8574606013
C 3.7673296761	1.401113287	1.5439918903
C 2.8259904207	2.7916385767	-0.319833819
C 1.6476906398	2.6802413753	1.8715212991
C 0.1214256898	-1.5422675394	1.724148031
C 1.3165119139	-1.213331637	2.6415169235
C 0.1240224911	-3.0700427575	1.5199092785
C -1.1133326604	-1.1967889034	2.5887891348
C 0.0295534579	1.1149886801	-1.3310009182
O 0.2555588038	0.4693021012	-2.3070075089
O -0.3276563636	2.3875763688	-1.3872522074
C -0.4591876512	2.9743703505	-2.6694894529
H 4.5072773308	-2.6709316308	-0.3850428833
H 4.2279723359	-1.4771406663	0.8803783403
H 3.1989792864	-2.9055733001	0.7647972361
H 1.5097458911	-3.1331933072	-1.1672921985
H 1.5089156714	-1.9274192883	-2.4563546288
H 2.8969791809	-3.0049979222	-2.2453856134
H 3.0412495013	0.0687596092	-2.3804256587
H 4.2650053765	0.2067014796	-1.111086986
H 4.3562440974	-1.1077500107	-2.2712141251
H 3.5640103938	0.7481769256	2.3926836614
H 4.4340846897	0.8742808154	0.8638723501
H 4.3086081157	2.2736554115	1.9176458019
H 3.3852632651	2.275418686	-1.0984963202
H 1.9308737348	3.2207670246	-0.7657089237
H 3.4423784642	3.6179195634	0.0442401143
H 1.4154525176	2.0988399447	2.7655696256
H 2.2160344952	3.5588301072	2.186275939
H 0.7050276897	3.0167908672	1.4397378461
H 1.1929850397	-1.7692377878	3.5737261491
H 2.2781774056	-1.4897457728	2.2273291181
H 1.3497686542	-0.1563646487	2.8964719601
H 0.1430260417	-3.5741139023	2.4890529828
H -0.7635312719	-3.4160359026	0.995896377
H 0.995332651	-3.4072933341	0.960846819
H -1.1707954828	-0.1280213266	2.8010821978
H -2.0609922427	-1.5056262501	2.1595940862
H -1.0113857493	-1.7122518708	3.5465232451
H 0.4828128481	2.9306944872	-3.212302569
H -1.2271000307	2.4636852624	-3.2474657214
H -0.7469139089	4.0065018632	-2.4935129782
H -1.041087030161074	0.4915943633422819	0.25480302423758394
H -0.9327166511402686	-0.8283400964402684	-0.09726933480872485
