24

C -1.4726207208	0.4317215804	0.3009797926
C -1.3658444555	-0.8167203206	-0.2313686585
C -2.3344437295	-1.7250402676	-0.9976063016
C -3.37411807	-2.3905549587	-0.0752284865
C -3.0763920648	-0.8686085419	-2.0469580308
C -1.5562909023	-2.804696414	-1.7647407066
C -2.5328528561	1.368533454	0.7062856154
O -2.3134081303	2.4586049751	1.1268662698
O -3.7601508416	0.8656845653	0.6168494611
C -4.822559746	1.7018168022	1.0418126027
H -2.9158028478	-3.0822606964	0.6314490954
H -3.9401236769	-1.6483694326	0.4844429956
H -4.0755389444	-2.9651793035	-0.6852752265
H -3.6852274484	-0.0988282266	-1.5799612894
H -2.3672559525	-0.3951577212	-2.7266969805
H -3.7342337211	-1.5102896891	-2.6385793084
H -1.0115164942	-3.4762928536	-1.1044130249
H -2.254947531	-3.4084609888	-2.3484337519
H -0.8445410321	-2.3510111215	-2.4525003897
H -5.73072966	1.1251201612	0.8927490608
H -4.7085612586	1.961913622	2.0920387484
H -4.8536565288	2.6146169878	0.4507302349
H -0.4040611058845638	0.579977995304698	0.18663731855973154
H -0.29333751137114095	-0.8454930988711409	0.10068680968791949
