15

C 1.339955805	-0.0329838133	-0.5445737514
C 2.5535743246	0.328932012	-0.1038374491
C 0.853929016	0.4919350799	-1.8971471633
C 3.4029998986	1.3396297488	-0.8537185124
C 3.287103888	-0.190018548	1.1239115946
H 1.6420977952	0.4483301078	-2.6476975461
H 0.0177527778	-0.0930602881	-2.2695078792
H 0.5059759031	1.5261976034	-1.836553887
H 2.8562033258	1.9281082043	-1.5835987155
H 4.2300297225	0.838922589	-1.3683046842
H 3.8528684252	2.0351439119	-0.1401739303
H 3.1761456214	-1.259595897	1.2675661149
H 4.353794932	0.005909694	1.0075080889
H 2.9730032035	0.3118421162	2.0419587343
H 0.627711095357047	-0.7027945743040268	-0.07043990147785234
