245
3.xyz
C              18.797              -16.762             7.643               
C              20.305              -16.911             7.409               
O              20.809              -18.041             7.347               
C              18.078              -16.528             6.305               
C              16.563              -16.588             6.437               
O              15.846              -16.752             5.447               
N              16.072              -16.492             7.669               
H              18.458              -17.678             7.965               
H              18.332              -15.628             5.967               
H              18.369              -17.233             5.666               
H              16.695              -16.38              8.445               
H              15.086              -16.53              7.82                
N              21.019              -15.793             7.236               
C              22.467              -15.848             7.014               
C              23.296              -16.008             8.287               
O              24.463              -16.402             8.23                
C              22.95               -14.605             6.284               
C              22.451              -14.475             4.872               
C              23.2                -13.398             4.09                
H              20.476              -14.917             7.272               
H              22.657              -16.654             6.419               
H              22.653              -13.793             6.801               
H              23.958              -14.616             6.264               
H              22.574              -15.345             4.396               
H              21.482              -14.232             4.884               
O              22.774              -12.233             4.02                
N              24.318              -13.784             3.49                
H              24.864              -13.126             2.939               
H              24.623              -14.749             3.589               
N              22.71               -15.707             9.436               
C              23.465              -15.802             10.666              
C              24.453              -14.649             10.689              
O              24.04               -13.489             10.643              
H              21.728              -15.417             9.374               
H              22.854              -15.73              11.448              
H              23.961              -16.664             10.696              
N              25.75               -14.938             10.758              
C              26.743              -13.866             10.77               
C              27.051              -13.396             9.351               
O              27.287              -14.197             8.456               
C              28.045              -14.301             11.486              
C              28.857              -15.416             10.795              
C              30.319              -15.59              11.284              
O              30.778              -14.886             12.194              
O              31.026              -16.458             10.708              
H              25.981              -15.938             10.8                
H              26.398              -13.092             11.312              
H              28.63               -13.507             11.546              
H              27.795              -14.633             12.382              
H              28.396              -16.277             10.956              
H              28.901              -15.211             9.827               
N              27.006              -12.088             9.135               
C              27.298              -11.506             7.821               
C              27.972              -10.129             7.981               
O              27.931              -9.528              9.056               
C              25.997              -11.365             6.99                
C              25.129              -10.248             7.564               
C              26.314              -11.125             5.522               
H              26.75               -11.515             9.964               
H              27.944              -12.108             7.347               
H              25.487              -12.21              7.088               
H              25.708              -9.596              8.053               
H              24.654              -9.781              6.819               
H              24.459              -10.639             8.194               
H              26.668              -11.968             5.118               
H              25.48               -10.848             5.045               
H              27.001              -10.402             5.446               
N              28.644              -9.657              6.94                
C              29.265              -8.346              6.988               
C              28.542              -7.418              5.989               
O              28.272              -7.799              4.841               
C              30.812              -8.42               6.691               
C              31.422              -7.031              6.585               
C              31.517              -9.165              7.814               
H              28.684              -10.286             6.12                
H              29.136              -7.962              7.899               
H              30.913              -8.861              5.805               
H              32.42               -7.102              6.595               
H              31.129              -6.601              5.731               
H              31.121              -6.473              7.358               
H              31.942              -8.505              8.433               
H              30.849              -9.714              8.316               
H              32.219              -9.762              7.425               
N              28.127              -6.252              6.465               
C              27.477              -5.259              5.613               
C              28.486              -4.111              5.41                
O              29.11               -3.663              6.375               
C              26.202              -4.72               6.295               
C              24.855              -5.265              5.776               
C              24.66               -6.709              6.142               
C              23.177              -7.121              6.105               
N              22.353              -6.732              7.295               
H              28.301              -6.106              7.48                
H              27.278              -5.661              4.731               
H              26.261              -4.932              7.276               
H              26.191              -3.719              6.186               
H              24.121              -4.714              6.176               
H              24.84               -5.164              4.78                
H              25.153              -7.288              5.496               
H              24.997              -6.87               7.067               
H              22.756              -6.718              5.269               
H              23.131              -8.133              5.991               
H              22.154              -5.755              7.249               
H              21.501              -7.252              7.286               
H              22.865              -6.935              8.127               
N              28.61               -3.641              4.166               
C              29.53               -2.544              3.772               
C              28.743              -1.297              3.322               
O              27.809              -1.413              2.52                
C              30.43               -2.954              2.586               
C              31.212              -4.2                2.807               
H              27.989              -4.12               3.465               
H              30.079              -2.296              4.573               
H              29.847              -3.078              1.772               
H              31.072              -2.198              2.399               
N              32.327              -4.258              3.63                
C              31.049              -5.461              2.332               
C              32.802              -5.483              3.648               
N              32.048              -6.236              2.869               
H              30.335              -5.768              1.707               
H              33.599              -5.796              4.161               
H              32.181              -7.214              2.698               
N              29.104              -0.148              3.881               
C              28.493              1.129               3.544               
C              29.561              2.067               2.985               
O              30.714              2.091               3.46                
C              27.902              1.83                4.772               
C              26.717              1.149               5.4                 
C              26.892              0.165               6.368               
C              25.401              1.516               5.052               
C              25.793              -0.441              6.979               
C              24.296              0.908               5.664               
C              24.503              -0.063              6.618               
O              23.437              -0.689              7.227               
H              29.872              -0.241              4.591               
H              27.809              0.977               2.83                
H              28.627              1.905               5.464               
H              27.624              2.755               4.495               
H              27.813              -0.115              6.632               
H              25.257              2.216               4.364               
H              25.933              -1.145              7.676               
H              23.374              1.182               5.404               
H              23.782              -1.382              7.857               
N              29.191              2.818               1.959               
C              30.095              3.81                1.397               
C              29.96               5.046               2.277               
O              28.873              5.367               2.728               
C              29.656              4.164               -0.016              
C              29.655              2.959               -0.902              
C              29.087              3.314               -2.215              
C              30.003              4.172               -3.017              
N              31.047              3.299               -3.619              
H              28.236              2.643               1.604               
H              31.024              3.477               1.453               
H              28.739              4.533               0.028               
H              30.291              4.832               -0.379              
H              30.595              2.636               -1.016              
H              29.105              2.241               -0.477              
H              28.898              2.474               -2.737              
H              28.22               3.808               -2.084              
H              29.498              4.619               -3.744              
H              30.442              4.841               -2.43               
H              31.5                2.777               -2.897              
H              30.62               2.67                -4.268              
H              31.719              3.866               -4.095              
N              31.074              5.659               2.637               
C              31.008              6.869               3.438               
C              31.329              7.988               2.457               
O              32.426              8.052               1.903               
C              32.016              6.854               4.592               
C              31.785              5.628               5.488               
C              32.022              8.25                5.307               
C              32.773              5.515               6.584               
H              31.949              5.225               2.315               
H              30.067              6.984               3.696               
H              32.929              6.781               4.207               
H              30.863              5.696               5.865               
H              31.832              4.816               4.906               
H              32.749              8.25                5.981               
H              32.179              8.949               4.622               
H              31.141              8.379               5.743               
H              32.731              6.327               7.175               
H              32.583              4.701               7.141               
H              33.702              5.438               6.209               
N              30.346              8.825               2.183               
C              30.557              9.88                1.222               
C              31.312              11.105              1.773               
O              31.285              11.385              2.962               
C              29.228              10.301              0.57                
C              29.163              10.133              -0.869              
C              28.408              8.903               -1.164              
N              27.008              9.083               -0.791              
C              26.48               8.676               0.36                
N              27.246              8.069               1.256               
N              25.175              8.827               0.6                 
H              29.466              8.664               2.69                
H              31.095              9.513               0.434               
H              28.504              9.756               1.012               
H              29.083              11.269              0.809               
H              28.692              10.903              -1.294              
H              30.078              10.041              -1.255              
H              28.456              8.71                -2.136              
H              28.784              8.151               -0.637              
H              26.401              9.546               -1.449              
H              28.218              7.925               1.1                 
H              26.835              7.745               2.121               
H              24.604              9.271               -0.096              
H              24.781              8.507               1.451               
N              31.923              11.852              0.881               
C              32.659              13.018              1.272               
C              31.797              14.25               0.993               
O              31.096              14.297              -0.021              
C              33.961              13.125              0.463               
C              34.975              12.054              0.828               
H              31.826              11.528              -0.104              
H              32.793              12.983              2.262               
H              33.736              13.035              -0.504              
H              34.365              14.019              0.639               
O              35.028              11.607              1.974               
N              35.774              11.634              -0.141              
H              35.692              12.029              -1.06               
H              36.457              10.928              0.037               
N              31.795              15.212              1.909               
C              31.083              16.471              1.677               
C              32.13               17.336              0.986               
O              33.304              17.323              1.39                
C              30.725              17.177              2.979               
C              29.516              16.795              3.845               
C              29.473              17.757              5.028               
C              28.221              16.875              3.04                
H              32.322              15.003              2.772               
H              30.348              16.309              1.055               
H              31.549              17.119              3.594               
H              30.622              18.178              2.765               
H              29.633              15.872              4.173               
H              29.379              18.694              4.692               
H              28.693              17.532              5.612               
H              30.319              17.675              5.555               
H              28.273              16.246              2.264               
H              27.45               16.622              3.625               
H              28.095              17.809              2.706               
N              31.734              18.043              -0.07               
H              30.737              17.912              -0.334              
H              32.3661             18.6619             -0.573755           
H              18.4869             -16.0465            8.37162             
