281
0.xyz
N              64.238              -19.586             -5.545              
C              65.312              -18.815             -4.899              
C              65.532              -17.502             -5.611              
O              64.718              -17.112             -6.438              
H              63.443              -18.998             -5.691              
H              65.061              -18.646             -3.939              
H              66.159              -19.358             -4.914              
H              64.557              -19.934             -6.426              
H              63.977              -20.355             -4.961              
N              66.619              -16.811             -5.282              
C              66.94               -15.54              -5.92               
C              68.183              -15.716             -6.761              
O              69.021              -16.56              -6.454              
C              67.151              -14.401             -4.887              
C              68.113              -14.851             -3.788              
C              67.653              -13.128             -5.58               
H              67.207              -17.247             -4.546              
H              66.182              -15.295             -6.525              
H              66.276              -14.225             -4.453              
H              67.596              -15.05              -2.957              
H              68.596              -15.672             -4.087              
H              68.772              -14.122             -3.606              
H              67.8                -13.322             -6.548              
H              66.967              -12.411             -5.476              
H              68.51               -12.844             -5.155              
N              68.259              -14.953             -7.841              
C              69.385              -14.998             -8.756              
C              69.922              -13.564             -8.838              
O              69.176              -12.631             -9.117              
C              68.892              -15.472             -10.117             
C              69.985              -15.864             -11.088             
C              69.444              -16.185             -12.482             
H              67.438              -14.316             -7.977              
H              70.093              -15.56              -8.357              
H              68.292              -16.269             -9.983              
H              68.349              -14.735             -10.538             
H              70.634              -15.109             -11.172             
H              70.455              -16.674             -10.742             
O              70.213              -16.457             -13.407             
N              68.124              -16.136             -12.645             
H              67.703              -16.323             -13.542             
H              67.542              -15.904             -11.838             
N              71.212              -13.392             -8.561              
C              71.847              -12.07              -8.573              
C              72.782              -11.861             -9.771              
O              73.651              -12.692             -10.035             
C              72.656              -11.844             -7.275              
C              72.977              -10.373             -7.098              
C              71.902              -12.385             -6.067              
H              71.729              -14.268             -8.337              
H              71.114              -11.372             -8.629              
H              73.521              -12.325             -7.375              
H              73.22               -9.972              -7.982              
H              72.179              -9.896              -6.727              
H              73.746              -10.27              -6.466              
H              71.225              -11.711             -5.772              
H              71.443              -13.236             -6.32               
H              72.549              -12.559             -5.325              
N              72.591              -10.778             -10.51              
C              73.44               -10.462             -11.653             
C              73.983              -9.069              -11.436             
O              73.218              -8.104              -11.358             
C              72.647              -10.453             -12.947             
C              72.153              -11.789             -13.381             
C              71.096              -11.646             -14.444             
O              70.072              -12.361             -14.353             
O              71.274              -10.795             -15.35              
H              71.794              -10.179             -10.209             
H              74.187              -11.114             -11.708             
H              71.863              -9.863              -12.81              
H              73.239              -10.097             -13.656             
H              72.896              -12.293             -13.771             
H              71.742              -12.243             -12.617             
N              75.305              -8.952              -11.39              
C              75.941              -7.668              -11.175             
C              75.746              -6.748              -12.351             
O              75.794              -7.171              -13.504             
C              77.464              -7.845              -10.888             
O              77.625              -8.651              -9.707              
C              78.164              -6.497              -10.68              
H              75.826              -9.841              -11.519             
H              75.526              -7.238              -10.357             
H              77.883              -8.336              -11.671             
H              79.152              -6.64               -10.615             
H              77.965              -5.894              -11.453             
H              77.833              -6.075              -9.835              
H              77.849              -8.07               -8.919              
N              75.443              -5.5                -12.036             
C              75.262              -4.466              -13.048             
C              76.506              -3.584              -12.957             
O              77.091              -3.199              -13.97              
C              73.998              -3.617              -12.771             
C              72.741              -4.476              -13.015             
C              73.999              -2.344              -13.644             
C              71.471              -3.969              -12.314             
H              75.345              -5.319              -11.014             
H              75.303              -4.919              -13.923             
H              74.008              -3.356              -11.818             
H              72.568              -4.511              -13.998             
H              72.928              -5.403              -12.691             
H              73.195              -1.801              -13.423             
H              74.825              -1.823              -13.454             
H              73.977              -2.61               -14.603             
H              71.269              -3.052              -12.643             
H              70.719              -4.584              -12.53              
H              71.632              -3.955              -11.332             
N              76.918              -3.312              -11.726             
C              78.084              -2.492              -11.485             
C              78.652              -3                  -10.152             
O              77.927              -3.124              -9.163              
C              77.645              -1.035              -11.41              
O              78.743              -0.174              -11.601             
H              76.34               -3.732              -10.971             
H              78.754              -2.675              -12.182             
H              76.969              -0.866              -12.121             
H              77.249              -0.865              -10.512             
H              79.424              -0.332              -10.885             
N              79.95               -3.325              -10.115             
C              80.634              -3.836              -8.921              
C              80.681              -2.969              -7.689              
O              80.703              -1.742              -7.781              
C              82.054              -4.118              -9.447              
C              82.25               -3.035              -10.435             
C              80.925              -3.091              -11.197             
H              80.251              -4.779              -8.684              
H              82.715              -4.062              -8.704              
H              82.093              -5.016              -9.873              
H              82.355              -2.157              -9.997              
H              83.002              -3.23               -11.043             
H              80.744              -2.23               -11.658             
H              80.921              -3.842              -11.848             
N              80.669              -3.605              -6.524              
C              80.793              -2.864              -5.275              
C              82.244              -2.958              -4.846              
O              83.073              -3.328              -5.663              
H              80.568              -4.629              -6.579              
H              80.548              -1.914              -5.423              
H              80.212              -3.273              -4.583              
N              82.569              -2.703              -3.58               
C              83.976              -2.782              -3.146              
C              84.553              -4.202              -3.131              
O              85.745              -4.383              -2.932              
C              84.192              -2.1                -1.783              
C              83.609              -2.883              -0.628              
O              83.868              -2.51               0.525               
O              82.899              -3.876              -0.851              
H              81.793              -2.458              -2.958              
H              84.521              -2.248              -3.819              
H              85.173              -2.003              -1.646              
H              83.759              -1.206              -1.82               
N              83.686              -5.2                -3.28               
C              84.097              -6.592              -3.306              
C              84.491              -7.184              -1.967              
O              84.944              -8.33               -1.91               
H              82.691              -4.894              -3.376              
H              83.338              -7.157              -3.709              
H              84.884              -6.696              -3.96               
N              84.271              -6.452              -0.882              
C              84.659              -6.975              0.417               
C              83.748              -6.672              1.602               
O              83.865              -7.323              2.636               
C              86.071              -6.495              0.737               
C              86.187              -4.989              0.869               
C              87.628              -4.536              0.696               
N              88.075              -4.6                -0.701              
C              89.349              -4.578              -1.09               
N              89.641              -4.633              -2.384              
N              90.335              -4.535              -0.193              
H              83.83               -5.542              -1.036              
H              84.747              -8.004              0.339               
H              86.352              -6.904              1.599               
H              86.675              -6.789              0.003               
H              85.637              -4.548              0.167               
H              85.881              -4.708              1.773               
H              87.699              -3.594              1.018               
H              88.209              -5.128              1.252               
H              87.367              -4.665              -1.415              
H              88.93               -4.67               -3.077              
H              90.609              -4.636              -2.672              
H              90.098              -4.5                0.783               
H              91.282              -4.537              -0.485              
N              82.894              -5.659              1.502               
C              82.014              -5.35               2.633               
C              80.619              -5.905              2.348               
O              79.887              -5.342              1.548               
C              81.932              -3.839              2.914               
O              83.25               -3.283              2.927               
C              81.319              -3.606              4.285               
H              82.903              -5.145              0.621               
H              82.373              -5.802              3.448               
H              81.405              -3.393              2.163               
H              80.325              -3.499              4.201               
H              81.515              -4.387              4.883               
H              81.704              -2.775              4.694               
H              83.501              -2.954              2.01                
N              80.32               -7.064              2.927               
C              79.031              -7.737              2.768               
C              78.211              -7.5                4.044               
O              78.777              -7.417              5.146               
C              79.248              -9.237              2.497               
C              79.988              -9.52               1.216               
C              79.301              -9.87               0.056               
C              81.379              -9.408              1.159               
C              79.993              -10.102             -1.151              
C              82.072              -9.636              -0.042              
C              81.386              -9.982              -1.198              
H              81.095              -7.461              3.515               
H              78.549              -7.277              2.03                
H              79.778              -9.602              3.245               
H              78.359              -9.662              2.438               
H              78.313              -9.959              0.066               
H              81.891              -9.162              1.979               
H              79.474              -10.355             -1.972              
H              83.082              -9.545              -0.05               
H              81.868              -10.143             -2.049              
N              76.886              -7.288              3.905               
C              76.006              -7.041              5.049               
C              75.871              -8.253              5.959               
O              75.825              -9.392              5.493               
C              74.659              -6.714              4.398               
C              75.013              -6.328              2.99                
C              76.105              -7.299              2.657               
H              76.325              -6.233              5.574               
H              74.057              -7.514              4.406               
H              74.21               -5.957              4.872               
H              74.23               -6.445              2.391               
H              75.34               -5.391              2.96                
H              75.747              -8.207              2.476               
H              76.658              -6.983              1.895               
N              75.801              -7.985              7.261               
C              75.646              -9.028              8.271               
C              74.349              -8.793              9.054               
O              73.864              -7.656              9.147               
C              76.847              -9.038              9.227               
C              78.193              -9.221              8.547               
C              78.244              -10.507             7.743               
C              79.604              -10.658             7.062               
N              79.671              -11.877             6.214               
H              75.866              -6.97               7.496               
H              75.587              -9.918              7.817               
H              76.857              -8.168              9.719               
H              76.717              -9.786              9.878               
H              78.356              -8.447              7.932               
H              78.911              -9.245              9.244               
H              78.112              -11.277             8.352               
H              77.545              -10.482             7.043               
H              79.77               -9.848              6.493               
H              80.314              -10.707             7.77                
H              78.984              -12.535             6.522               
H              79.493              -11.63              5.262               
H              80.581              -12.285             6.289               
N              73.807              -9.87               9.619               
C              72.568              -9.831              10.401              
C              72.609              -8.706              11.426              
O              73.618              -8.521              12.1                
C              72.355              -11.173             11.119              
C              71.518              -12.229             10.369              
C              71.38               -11.993             8.858               
N              72.562              -12.366             8.072               
C              72.563              -12.531             6.747               
N              73.685              -12.863             6.116               
N              71.446              -12.365             6.044               
H              74.344              -10.755             9.457               
H              71.797              -9.67               9.774               
H              73.255              -11.577             11.302              
H              71.897              -10.992             11.993              
H              71.939              -13.135             10.503              
H              70.591              -12.25              10.763              
H              70.59               -12.525             8.538               
H              71.187              -11.016             8.72                
H              73.427              -12.507             8.564               
H              74.532              -13.013             6.618               
H              73.678              -12.966             5.114               
H              70.597              -12.133             6.528               
H              71.451              -12.47              5.057               
N              71.529              -7.935              11.522              
C              71.478              -6.84               12.479              
H              70.758              -8.176              10.878              
H              70.526              -6.768              12.854              
H              72.071              -7.071              13.283              
H              71.7782             -5.86623            12.0869             
