298
0.xyz
N              -16.044             15.281              48.24               
C              -15.646             15.68               46.911              
C              -16.912             15.662              46.081              
O              -17.994             15.886              46.626              
H              -16.853             14.687              48.2                
H              -15.272             16.595              46.927              
H              -14.997             15.033              46.54               
H              -15.301             14.778              48.692              
H              -16.267             16.088              48.796              
N              -16.785             15.358              44.803              
C              -17.913             15.287              43.899              
C              -17.711             13.979              43.149              
O              -16.604             13.611              42.761              
C              -17.928             16.551              42.939              
C              -16.593             16.817              42.281              
C              -18.963             16.294              41.848              
H              -15.798             15.173              44.5                
H              -18.739             15.211              44.428              
H              -18.149             17.34               43.517              
H              -16.23              15.967              41.894              
H              -16.705             17.49               41.548              
H              -15.946             17.172              42.958              
H              -19.573             15.559              42.141              
H              -19.49              17.129              41.692              
H              -18.494             16.029              41.007              
N              -18.801             13.237              43.091              
C              -18.891             11.987              42.373              
C              -19.732             12.232              41.111              
O              -20.825             12.802              41.197              
C              -19.548             11.017              43.324              
C              -19.999             9.718               42.692              
C              -20.835             8.922               43.665              
H              -19.619             13.645              43.626              
H              -17.979             11.722              42.076              
H              -18.901             10.793              44.064              
H              -20.357             11.457              43.736              
H              -20.548             9.922               41.892              
H              -19.2               9.185               42.445              
O              -20.337             8.029               44.35               
N              -22.13              9.232               43.721              
H              -22.76              8.73                44.343              
H              -22.48              9.983               43.13               
N              -19.309             11.779              39.947              
C              -20.044             11.989              38.706              
C              -20.486             10.622              38.218              
O              -19.652             9.731               38.006              
C              -19.152             12.64               37.61               
C              -19.987             12.741              36.332              
C              -18.645             14.025              38.021              
H              -18.402             11.256              39.987              
H              -20.855             12.524              38.91               
H              -18.413             12.021              37.425              
H              -20.948             12.583              36.552              
H              -19.878             13.652              35.938              
H              -19.675             12.053              35.679              
H              -17.765             14.193              37.581              
H              -19.307             14.713              37.731              
H              -18.539             14.052              39.013              
N              -21.782             10.42               38.105              
C              -22.31              9.174               37.626              
C              -23.073             9.53                36.382              
O              -23.995             10.323              36.47               
C              -23.307             8.524               38.575              
C              -22.772             8.008               39.894              
C              -23.898             7.664               40.873              
O              -24.599             8.577               41.328              
O              -24.079             6.482               41.172              
H              -22.376             11.23               38.389              
H              -21.577             8.549               37.406              
H              -24.01              9.202               38.783              
H              -23.718             7.75                38.096              
H              -22.27              7.184               39.729              
H              -22.231             8.709               40.311              
N              -22.771             8.962               35.228              
C              -23.448             9.286               33.98               
C              -24.885             8.737               33.907              
O              -25.12              7.604               34.301              
C              -22.573             8.711               32.808              
O              -21.249             9.238               32.952              
C              -23.102             9.074               31.439              
H              -21.998             8.253               35.285              
H              -23.498             10.296              33.891              
H              -22.537             7.707               32.908              
H              -22.349             9.374               30.847              
H              -23.547             8.278               31.019              
H              -23.772             9.818               31.514              
H              -20.966             9.707               32.109              
N              -25.864             9.52                33.434              
C              -27.23              9.112               33.117              
C              -27.216             8.869               31.609              
O              -27.728             7.848               31.146              
C              -28.208             10.259              33.517              
C              -28.295             10.319              35.046              
C              -29.617             10.038              32.94               
C              -28.702             11.734              35.511              
H              -25.54              10.533              33.3                
H              -27.365             8.236               33.54               
H              -27.822             11.106              33.194              
H              -28.974             9.682               35.355              
H              -27.411             10.114              35.423              
H              -30.204             10.794              33.216              
H              -29.559             9.999               31.947              
H              -29.982             9.181               33.292              
H              -29.59              11.951              35.121              
H              -28.749             11.739              36.504              
H              -28.017             12.38               35.194              
N              -26.656             9.781               30.798              
C              -26.547             9.633               29.317              
C              -25.165             10.112              28.847              
O              -24.717             11.142              29.351              
C              -27.614             10.481              28.579              
O              -28.926             10.099              28.993              
H              -26.291             10.628              31.297              
H              -26.628             8.662               29.106              
H              -27.468             11.434              28.802              
H              -27.522             10.323              27.606              
H              -28.857             9.371               29.671              
N              -24.416             9.427               27.975              
C              -23.122             9.895               27.495              
C              -23.162             11.179              26.666              
O              -24.175             11.497              26.06               
C              -22.592             8.702               26.75               
C              -23.856             8.055               26.209              
C              -24.804             8.162               27.378              
H              -22.468             10.003              28.278              
H              -21.997             8.969               25.997              
H              -22.116             8.068               27.353              
H              -24.19              8.561               25.426              
H              -23.68              7.11                25.973              
H              -25.753             8.183               27.07               
H              -24.674             7.405               28.017              
N              -22.054             11.929              26.659              
C              -21.889             13.125              25.849              
C              -21.07              12.704              24.636              
O              -21.011             11.515              24.273              
H              -21.301             11.569              27.303              
H              -22.771             13.458              25.553              
H              -21.396             13.813              26.358              
N              -20.352             13.613              24.013              
C              -19.537             13.24               22.882              
C              -18.17              12.705              23.248              
O              -17.46              12.241              22.371              
C              -19.389             14.426              21.945              
C              -18.596             15.634              22.412              
O              -18.058             15.679              23.505              
O              -18.543             16.594              21.676              
H              -20.421             14.572              24.388              
H              -20.027             12.49               22.39               
H              -18.964             14.087              21.08               
H              -20.326             14.743              21.695              
N              -17.687             12.851              24.482              
C              -16.38              12.351              24.887              
C              -15.211             13.067              24.283              
O              -14.105             12.546              24.281              
H              -18.331             13.357              25.135              
H              -16.316             12.394              25.912              
H              -16.326             11.351              24.656              
N              -15.413             14.255              23.76               
C              -14.386             15.063              23.133              
C              -14.413             16.542              23.529              
O              -13.362             17.152              23.671              
C              -14.517             15.023              21.629              
C              -14.368             13.665              21.022              
C              -15.184             13.724              19.728              
N              -14.962             12.525              18.94               
C              -15.722             11.426              19.024              
N              -16.827             11.351              19.794              
N              -15.388             10.386              18.25               
H              -16.42              14.586              23.836              
H              -13.47              14.685              23.384              
H              -15.422             15.381              21.383              
H              -13.814             15.622              21.237              
H              -13.442             13.494              20.784              
H              -14.765             12.988              21.594              
H              -16.139             13.792              19.975              
H              -14.887             14.52               19.22               
H              -14.195             12.512              18.292              
H              -17.094             12.168              20.309              
H              -17.346             10.516              19.839              
H              -14.619             10.436              17.624              
H              -15.93              9.54                18.306              
N              -15.578             17.168              23.727              
C              -15.7               18.591              23.998              
C              -16.115             18.828              25.457              
O              -17.262             18.633              25.865              
C              -16.736             19.147              22.97               
O              -16.557             18.396              21.755              
C              -16.58              20.644              22.731              
H              -16.413             16.526              23.668              
H              -14.806             19.027              23.855              
H              -17.662             18.97               23.323              
H              -17.482             21.08               22.714              
H              -16.032             21.049              23.466              
H              -16.122             20.801              21.854              
H              -17.256             17.678              21.686              
N              -15.068             19.151              26.204              
C              -15.05              19.345              27.634              
C              -14.88              20.841              27.93               
O              -14.185             21.567              27.224              
C              -13.886             18.547              28.183              
C              -14.085             17.044              28.079              
C              -14.771             16.38               29.068              
C              -13.614             16.355              26.978              
C              -14.994             15.023              28.966              
C              -13.848             14.992              26.883              
C              -14.534             14.335              27.875              
H              -14.172             19.264              25.613              
H              -15.95              19.09               27.986              
H              -13.078             18.774              27.665              
H              -13.78              18.765              29.139              
H              -15.112             16.875              29.862              
H              -13.116             16.827              26.264              
H              -15.497             14.546              29.703              
H              -13.504             14.485              26.07               
H              -14.701             13.345              27.801              
N              -15.541             21.389              28.912              
C              -15.463             22.812              29.167              
C              -14.111             23.225              29.702              
O              -13.519             22.523              30.519              
C              -16.605             23.082              30.125              
C              -17.089             21.733              30.6                
C              -16.693             20.762              29.528              
H              -15.695             23.341              28.331              
H              -16.298             23.638              30.911              
H              -17.355             23.58               29.668              
H              -16.658             21.502              31.478              
H              -18.086             21.75               30.725              
H              -16.453             19.868              29.918              
H              -17.435             20.634              28.861              
N              -13.649             24.347              29.213              
C              -12.407             25.004              29.601              
C              -12.739             26.212              30.475              
O              -13.805             26.81               30.346              
C              -11.657             25.538              28.386              
C              -11.467             24.471              27.308              
C              -11.016             25.095              25.966              
C              -11.137             23.985              24.887              
N              -9.945              23.785              24.073              
H              -14.286             24.773              28.463              
H              -11.851             24.367              30.133              
H              -12.179             26.283              27.995              
H              -10.762             25.846              28.678              
H              -10.768             23.825              27.604              
H              -12.33              23.996              27.158              
H              -11.622             25.817              25.734              
H              -10.084             25.356              26.035              
H              -11.382             23.122              25.368              
H              -11.929             24.224              24.295              
H              -9.975              24.378              23.263              
H              -9.121              24.005              24.604              
H              -9.888              22.828              23.77               
N              -11.853             26.62               31.366              
C              -11.991             27.825              32.149              
C              -12.294             29.031              31.257              
O              -11.639             29.19               30.23               
C              -10.701             28.048              32.874              
C              -10.802             28.986              34.048              
C              -9.451              29.63               34.14               
N              -9.229              29.977              35.522              
C              -8.405              30.97               35.887              
N              -7.737              31.691              34.955              
N              -8.257              31.182              37.217              
H              -11.018             25.975              31.457              
H              -12.754             27.715              32.799              
H              -10.365             27.167              33.213              
H              -10.032             28.43               32.233              
H              -11.468             29.673              33.868              
H              -10.966             28.48               34.863              
H              -8.773              28.982              33.846              
H              -9.454              30.444              33.588              
H              -9.697              29.47               36.237              
H              -7.875              31.494              33.992              
H              -7.116              32.411              35.249              
H              -8.752              30.64               37.877              
H              -7.631              31.906              37.522              
N              -13.243             29.91               31.588              
C              -13.579             31.034              30.745              
C              -14.744             30.779              29.813              
O              -15.28              31.714              29.205              
H              -13.71              29.709              32.5                
H              -13.793             31.844              31.331              
H              -12.761             31.297              30.191              
N              -15.129             29.518              29.679              
C              -16.259             29.162              28.846              
C              -16.086             27.801              28.244              
C              -14.824             27.695              27.406              
C              -14.939             26.471              26.51               
H              -14.563             28.829              30.21               
H              -16.348             29.861              28.126              
H              -16.028             27.118              28.97               
H              -16.864             27.595              27.651              
H              -14.745             28.494              26.84               
H              -14.051             27.58               28.001              
O              -14.767             25.32               26.919              
N              -15.296             26.66               25.247              
H              -15.376             25.894              24.6                
H              -15.493             27.617              24.935              
H              -17.1703            29.1613             29.4284             
