193
1.xyz
C              45.35               -0.45               1.429               
C              45.132              -1.301              2.681               
O              45.347              -0.856              3.791               
C              46.807              0.016               1.378               
C              47.115              0.583               -0.008              
C              47.786              1.95                0.138               
C              48.056              -0.369              -0.75               
H              45.108              -0.99               0.627               
H              46.92               0.731               2.023               
H              47.378              -0.754              1.518               
H              46.266              0.687               -0.515              
H              48.635              1.848               0.654               
H              47.986              2.318               -0.769              
H              47.171              2.57                0.624               
H              47.616              -1.262              -0.843              
H              48.256              0.003               -1.655              
H              48.905              -0.465              -0.231              
N              44.705              -2.522              2.513               
C              44.473              -3.399              3.695               
C              45.819              -3.838              4.275               
O              46.37               -4.85               3.891               
C              43.672              -4.63               3.265               
C              42.21               -4.461              3.683               
C              41.592              -5.835              3.948               
H              44.543              -2.833              1.55                
H              44.001              -2.853              4.383               
H              43.705              -4.711              2.287               
H              44.032              -5.424              3.719               
H              42.174              -3.935              4.514               
H              41.716              -4.029              2.949               
O              41.519              -6.663              3.061               
N              41.14               -6.115              5.14                
H              40.713              -6.992              5.368               
H              41.23               -5.395              5.88                
N              46.353              -3.085              5.198               
C              47.663              -3.461              5.8                 
C              47.622              -4.929              6.227               
O              46.577              -5.469              6.533               
C              47.938              -2.579              7.02                
C              48.262              -1.157              6.555               
C              49.125              -3.143              7.805               
C              49.606              -1.152              5.823               
H              45.834              -2.246              5.475               
H              48.328              -3.391              5.062               
H              47.114              -2.541              7.568               
H              47.564              -0.856              5.939               
H              48.332              -0.576              7.341               
H              49.3                -2.564              8.598               
H              48.91               -4.069              8.106               
H              49.93               -3.159              7.217               
H              49.546              -1.758              5.035               
H              49.807              -0.223              5.525               
H              50.314              -1.472              6.447               
N              48.751              -5.579              6.25                
C              48.779              -7.012              6.659               
C              49.815              -7.199              7.765               
O              49.483              -7.416              8.913               
C              49.151              -7.88               5.455               
C              49.196              -9.349              5.879               
C              48.103              -7.7                4.354               
H              49.594              -5.063              5.979               
H              47.88               -7.236              7.027               
H              50.069              -7.637              5.171               
H              49.126              -9.929              5.069               
H              50.059              -9.531              6.348               
H              48.433              -9.539              6.494               
H              48.564              -7.654              3.47                
H              47.477              -8.477              4.37                
H              47.599              -6.854              4.519               
N              51.068              -7.109              7.426               
C              52.132              -7.274              8.454               
C              52.9                -5.96               8.6                 
O              53.529              -5.493              7.67                
C              53.093              -8.383              8.024               
C              53.102              -9.487              9.083               
O              53.993              -10.312             9.109               
N              52.141              -9.538              9.964               
H              51.274              -6.923              6.439               
H              51.668              -7.446              9.319               
H              52.777              -8.766              7.177               
H              53.998              -8.009              7.955               
H              51.405              -8.835              9.911               
H              52.111              -10.231             10.669              
N              52.85               -5.358              9.756               
C              53.573              -4.072              9.959               
C              54.639              -4.247              11.043              
O              54.815              -3.4                11.896              
C              52.578              -2.992              10.39               
C              51.587              -3.583              11.394              
H              52.3                -5.809              10.494              
H              54.047              -3.873              9.104               
H              53.07               -2.265              10.829              
H              52.079              -2.688              9.601               
O              50.779              -4.421              11.046              
N              51.615              -3.18               12.635              
H              52.301              -2.473              12.893              
H              50.996              -3.54               13.317              
N              55.351              -5.341              11.019              
C              56.403              -5.568              12.051              
C              57.736              -5.885              11.367              
O              58.764              -5.982              12.008              
C              55.998              -6.744              12.943              
O              56.974              -6.923              13.959              
C              55.897              -8.015              12.098              
H              55.151              -6.013              10.273              
H              56.505              -4.726              12.576              
H              55.105              -6.527              13.389              
H              55.322              -8.686              12.568              
H              55.492              -7.796              11.209              
H              56.811              -8.401              11.96               
H              56.709              -6.432              14.798              
N              57.73               -6.047              10.072              
C              58.998              -6.359              9.354               
C              59.947              -5.163              9.451               
O              61.153              -5.311              9.416               
C              58.692              -6.649              7.882               
C              59.952              -7.178              7.191               
C              60.217              -8.616              7.642               
O              59.399              -9.47               7.343               
O              61.235              -8.838              8.277               
H              56.83               -5.95               9.593               
H              59.419              -7.162              9.769               
H              58.025              -7.345              7.846               
H              58.451              -5.818              7.456               
H              59.793              -7.195              6.237               
H              60.705              -6.64               7.472               
N              59.413              -3.979              9.575               
C              60.285              -2.775              9.675               
C              59.552              -1.563              9.098               
O              58.445              -1.251              9.489               
H              58.39               -3.928              9.599               
H              60.503              -2.612              10.634              
H              61.123              -2.939              9.16                
N              60.16               -0.878              8.169               
C              59.497              0.313               7.567               
C              58.675              -0.119              6.351               
O              58.12               0.698               5.643               
C              60.561              1.322               7.13                
C              61.236              1.921               8.365               
O              60.606              2.73                9.026               
O              62.371              1.56                8.629               
H              61.092              -1.197              7.886               
H              58.859              0.66                8.251               
H              61.237              0.85                6.602               
H              60.121              2.041               6.633               
N              58.591              -1.397              6.1                 
C              57.804              -1.876              4.93                
C              56.764              -2.896              5.398               
O              57.09               -3.905              5.993               
C              58.747              -2.523              3.912               
C              59.559              -1.458              3.245               
C              60.622              -0.83               3.8                 
C              59.392              -0.884              1.916               
N              61.119              0.093               2.896               
C              60.394              0.097               1.72                
C              58.479              -1.117              0.871               
C              60.484              0.821               0.53                
C              58.569              -0.39               -0.328              
C              59.569              0.577               -0.497              
H              59.084              -2.032              6.736               
H              57.317              -1.088              4.56                
H              59.363              -3.117              4.38                
H              58.218              -2.968              3.224               
H              60.995              -0.993              4.704               
H              61.916              0.693               3.073               
H              57.755              -1.806              0.972               
H              61.21               1.519               0.416               
H              57.917              -0.571              -1.047              
H              59.629              1.085               -1.34               
N              55.512              -2.635              5.14                
C              54.44               -3.577              5.573               
C              53.379              -2.8                6.351               
C              54.046              -1.893              7.33                
C              55.248              -2.115              7.909               
C              53.567              -0.626              7.854               
N              55.536              -1.061              8.757               
C              54.529              -0.116              8.756               
C              52.401              0.121               7.631               
C              54.337              1.098               9.418               
C              52.202              1.344               8.294               
C              53.169              1.831               9.186               
H              55.312              -1.764              4.633               
H              54.88               -4.299              6.102               
H              52.869              -2.245              5.73                
H              52.827              -3.429              6.854               
H              55.836              -2.898              7.76                
H              56.381              -0.989              9.312               
H              51.697              -0.209              6.995               
H              55.04               1.442               10.061              
H              51.374              1.853               8.124               
H              53.027              2.689               9.649               
H              44.6956             0.414007            1.46176             
H              53.9761             -4.0366             4.69115             
