208
2.xyz
C              22.135              -6.125              10.124              
O              23.067              -6.931              10.152              
N              21.638              -5.616              9.002               
C              22.2                -5.933              7.696               
C              23.487              -5.124              7.552               
O              23.473              -3.899              7.691               
C              21.215              -5.54               6.595               
O              21.78               -5.725              5.309               
H              20.824              -4.981              9.136               
H              22.441              -6.895              7.683               
H              20.4                -6.107              6.676               
H              20.974              -4.579              6.708               
H              21.674              -6.679              5.032               
N              24.596              -5.809              7.288               
C              25.88               -5.132              7.138               
C              26.706              -5.737              6.014               
O              26.394              -6.81               5.497               
C              26.724              -5.221              8.435               
C              27.129              -6.676              8.694               
C              25.933              -4.674              9.617               
C              28.075              -6.859              9.869               
H              24.472              -6.831              7.201               
H              25.669              -4.185              6.865               
H              27.549              -4.69               8.296               
H              26.301              -7.21               8.86                
H              27.573              -7.028              7.87                
H              26.495              -4.714              10.441              
H              25.676              -3.727              9.435               
H              25.11               -5.223              9.749               
H              27.636              -6.522              10.699              
H              28.289              -7.829              9.97                
H              28.913              -6.345              9.699               
N              27.763              -5.029              5.635               
C              28.676              -5.5                4.603               
C              30.083              -5.268              5.118               
O              30.459              -4.138              5.442               
C              28.497              -4.738              3.275               
O              27.205              -5.033              2.729               
C              29.573              -5.151              2.272               
H              27.88               -4.122              6.132               
H              28.54               -6.475              4.477               
H              28.543              -3.737              3.462               
H              30.137              -5.88               2.664               
H              29.141              -5.483              1.432               
H              30.153              -4.363              2.057               
H              26.662              -5.568              3.385               
N              30.85               -6.346              5.222               
C              32.221              -6.245              5.689               
C              33.152              -6.148              4.497               
O              32.977              -6.846              3.496               
C              32.6                -7.46               6.537               
C              31.886              -7.478              7.869               
O              31.957              -6.46               8.583               
O              31.258              -8.502              8.207               
H              30.397              -7.236              4.949               
H              32.301              -5.385              6.198               
H              32.354              -8.277              6.029               
H              33.579              -7.429              6.696               
N              34.127              -5.253              4.607               
C              35.116              -5.056              3.563               
C              36.472              -5.418              4.141               
O              36.912              -4.841              5.138               
C              35.131              -3.604              3.103               
S              33.586              -3.038              2.323               
H              34.118              -4.712              5.499               
H              34.918              -5.682              2.815               
H              35.305              -3.023              3.897               
H              35.869              -3.491              2.438               
N              37.126              -6.388              3.516               
C              38.434              -6.831              3.967               
C              39.436              -6.753              2.822               
O              39.219              -7.33               1.76                
C              38.352              -8.268              4.476               
C              39.679              -8.802              5.012               
C              39.966              -10.189             4.492               
N              39.731              -10.28              3.052               
C              40.388              -11.103             2.243               
N              40.102              -11.128             0.95                
N              41.342              -11.891             2.727               
H              36.632              -6.792              2.697               
H              38.747              -6.229              4.708               
H              37.688              -8.303              5.214               
H              38.069              -8.853              3.725               
H              40.415              -8.195              4.724               
H              39.638              -8.839              6.007               
H              40.919              -10.406             4.681               
H              39.367              -10.831             4.962               
H              39.029              -9.683              2.651               
H              39.413              -10.525             0.558               
H              40.593              -11.771             0.345               
H              41.574              -11.844             3.702               
H              41.825              -12.523             2.127               
N              40.531              -6.033              3.04                
C              41.556              -5.892              2.009               
C              42.099              -7.26               1.598               
O              42.35               -8.114              2.446               
C              42.699              -4.994              2.512               
C              43.945              -4.999              1.633               
C              44.915              -3.887              1.989               
O              45.249              -3.736              3.184               
O              45.347              -3.165              1.068               
H              40.592              -5.595              3.974               
H              41.167              -5.432              1.204               
H              42.359              -4.07               2.542               
H              42.962              -5.318              3.404               
H              44.41               -5.853              1.765               
H              43.666              -4.863              0.702               
N              42.271              -7.469              0.295               
C              42.788              -8.74               -0.198              
C              44.292              -8.825              0.033               
O              44.94               -7.833              0.377               
C              42.515              -8.919              -1.704              
O              43.207              -7.902              -2.435              
C              41.019              -8.829              -1.994              
H              42.014              -6.676              -0.315              
H              42.347              -9.485              0.312               
H              42.877              -9.826              -1.997              
H              40.874              -8.417              -2.896              
H              40.617              -9.746              -1.981              
H              40.573              -8.264              -1.297              
H              42.813              -6.998              -2.237              
N              44.843              -10.017             -0.161              
C              46.266              -10.204             0.041               
C              47.124              -9.571              -1.037              
O              48.242              -9.137              -0.766              
H              44.195              -10.762             -0.455              
H              46.531              -9.817              0.947               
H              46.471              -11.203             0.086               
N              46.603              -9.511              -2.258              
C              47.345              -8.934              -3.373              
C              47.063              -7.444              -3.546              
O              47.545              -6.817              -4.491              
C              47.011              -9.678              -4.668              
O              45.634              -9.573              -4.98               
H              45.647              -9.901              -2.346              
H              48.332              -9.041              -3.181              
H              47.544              -9.283              -5.411              
H              47.246              -10.64              -4.554              
H              45.161              -9.087              -4.246              
N              46.28               -6.88               -2.631              
C              45.943              -5.462              -2.684              
C              47.181              -4.604              -2.448              
O              47.908              -4.803              -1.475              
C              44.885              -5.129              -1.628              
O              44.633              -3.734              -1.584              
H              45.938              -7.523              -1.893              
H              45.596              -5.257              -3.606              
H              44.042              -5.604              -1.858              
H              45.217              -5.427              -0.738              
H              44.848              -3.386              -0.673              
N              47.416              -3.651              -3.343              
C              48.563              -2.761              -3.222              
C              48.183              -1.306              -3.464              
O              47.786              -0.93               -4.568              
C              49.666              -3.167              -4.206              
C              50.439              -4.419              -3.814              
C              51.134              -4.238              -2.472              
C              52.121              -5.361              -2.197              
N              51.495              -6.707              -2.282              
H              46.727              -3.598              -4.117              
H              48.944              -2.844              -2.288              
H              49.243              -3.326              -5.098              
H              50.314              -2.407              -4.277              
H              49.804              -5.187              -3.748              
H              51.127              -4.61               -4.511              
H              51.629              -3.375              -2.481              
H              50.448              -4.235              -1.752              
H              52.872              -5.304              -2.865              
H              52.508              -5.235              -1.275              
H              51.489              -7.129              -1.375              
H              50.556              -6.617              -2.614              
H              52.02               -7.278              -2.913              
N              48.306              -0.497              -2.417              
C              48.002              0.928               -2.483              
C              48.72               1.511               -3.701              
O              49.835              1.1                 -4.02               
C              48.502              1.608               -1.207              
C              48.265              3.099               -1.141              
C              47.011              3.616               -0.821              
C              49.304              3.996               -1.388              
C              46.798              4.992               -0.746              
C              49.102              5.369               -1.316              
C              47.849              5.861               -0.994              
O              47.656              7.221               -0.915              
H              48.638              -0.968              -1.545              
H              47.022              1.038               -2.619              
H              48.04               1.183               -0.426              
H              49.488              1.446               -1.133              
H              46.249              2.993               -0.642              
H              50.209              3.645               -1.62               
H              45.893              5.347               -0.514              
H              49.858              5.998               -1.496              
H              46.764              7.402               -0.505              
N              48.094              2.474               -4.397              
C              46.774              3.056               -4.136              
C              46.879              4.425               -4.79               
C              47.678              4.114               -6.011              
C              48.777              3.212               -5.476              
H              46.642              3.204               -3.137              
H              45.981              4.775               -5.03               
H              47.358              5.065               -4.203              
H              47.128              3.633               -6.684              
H              48.064              4.941               -6.404              
H              49.103              2.587               -6.179              
H              49.536              3.746               -5.113              
H              45.9431             2.46858             -4.5482             
H              33.3859             -3.9233             1.37294             
H              21.6673             -5.80532            11.016              
