197
1.xyz
C              44.269              1.309               -1.012              
O              45.263              1.989               -1.178              
N              43.566              1.394               0.083               
C              43.978              2.337               1.16                
C              44.938              1.628               2.116               
O              44.711              0.504               2.519               
C              42.743              2.804               1.931               
C              41.919              3.747               1.052               
C              40.459              3.291               1.045               
N              39.587              4.409               1.502               
C              38.291              4.333               1.356               
N              37.753              3.276               0.808               
N              37.532              5.315               1.758               
H              42.74               0.793               0.157               
H              44.449              3.108               0.737               
H              42.193              2.026               2.142               
H              43.034              3.3                 2.719               
H              41.956              4.66                1.422               
H              42.257              3.714               0.126               
H              40.212              3.05                0.126               
H              40.365              2.538               1.669               
H              40.011              5.19                1.909               
H              38.3                2.495               0.506               
H              36.746              3.232               0.68                
H              37.931              6.127               2.2                 
H              36.534              5.275               1.634               
N              46.009              2.275               2.482               
C              46.983              1.639               3.412               
C              47.288              2.599               4.563               
O              47.395              3.794               4.374               
C              48.275              1.321               2.656               
C              48.012              0.215               1.634               
C              48.019              0.809               0.224               
C              49.107              -0.848              1.742               
H              46.138              3.219               2.103               
H              46.563              0.815               3.783               
H              48.546              2.115               2.171               
H              48.926              0.99                3.292               
H              47.123              -0.192              1.814               
H              48.91               1.224               0.045               
H              47.847              0.084               -0.441              
H              47.305              1.504               0.155               
H              49.102              -1.235              2.663               
H              48.934              -1.57               1.073               
H              49.995              -0.428              1.559               
N              47.432              2.087               5.754               
C              47.733              2.974               6.913               
C              49.245              3.196               7                   
O              49.978              2.353               7.476               
C              47.236              2.317               8.203               
C              46.045              3.107               8.752               
C              45.952              2.905               10.265              
H              47.329              1.072               5.843               
H              47.299              3.853               6.736               
H              46.934              1.404               8.005               
H              47.954              2.338               8.874               
H              46.186              4.064               8.57                
H              45.219              2.769               8.337               
O              46.911              3.122               10.979              
N              44.829              2.497               10.789              
H              44.714              2.334               11.771              
H              44.023              2.336               10.158              
N              49.717              4.323               6.541               
C              51.181              4.593               6.594               
C              51.663              4.528               8.046               
O              50.94               4.85                8.967               
C              51.47               5.981               6.02                
C              51.258              5.958               4.504               
C              52.918              6.37                6.322               
C              52.073              4.815               3.894               
H              49.042              4.99                6.154               
H              51.613              3.836               6.111               
H              50.821              6.62                6.409               
H              50.31               5.807               4.316               
H              51.576              6.804               4.128               
H              53.102              7.274               5.944               
H              53.056              6.385               7.31                
H              53.532              5.702               5.908               
H              51.768              3.954               4.29                
H              51.93               4.807               2.908               
H              53.037              4.962               4.098               
N              52.883              4.115               8.252               
C              53.425              4.026               9.635               
C              54.653              4.925               9.744               
O              54.616              5.983               10.341              
C              53.832              2.581               9.925               
C              54.392              2.482               11.345              
C              52.609              1.669               9.796               
H              53.434              3.861               7.422               
H              52.726              4.371               10.255              
H              54.571              2.339               9.31                
H              54.929              1.644               11.431              
H              54.974              3.273               11.526              
H              53.636              2.464               11.998              
H              52.172              1.834               8.914               
H              52.905              0.717               9.857               
H              51.97               1.874               10.535              
N              55.739              4.509               9.16                
C              56.979              5.33                9.209               
C              57.338              5.768               7.789               
O              57.645              4.954               6.939               
C              58.122              4.499               9.795               
C              58.628              5.158               11.08               
H              55.692              3.604               8.676               
H              56.757              6.151               9.727               
H              57.783              3.604               10.016              
H              58.859              4.473               9.147               
O              58.564              6.363               11.223              
N              59.131              4.414               12.026              
H              59.175              3.408               11.872              
H              59.465              4.798               12.875              
N              57.292              7.045               7.52                
C              57.623              7.527               6.15                
C              58.813              8.485               6.212               
O              59.052              9.252               5.3                 
C              56.413              8.258               5.563               
C              55.991              9.385               6.507               
H              57.024              7.674               8.282               
H              57.911              6.726               5.628               
H              56.668              8.652               4.701               
H              55.668              7.623               5.482               
O              56.751              9.795               7.361               
N              54.801              9.907               6.388               
H              54.185              9.537               5.666               
H              54.489              10.641              6.974               
N              59.563              8.451               7.278               
C              60.736              9.362               7.39                
C              62.029              8.548               7.301               
O              63.116              9.085               7.381               
C              60.687              10.095              8.733               
O              61.715              11.074              8.773               
C              60.889              9.092               9.87                
H              59.306              7.783               8.01                
H              60.705              9.999               6.623               
H              59.786              10.57               8.817               
H              60.5                9.46                10.716              
H              60.432              8.23                9.643               
H              61.867              8.924               10                  
H              61.377              11.96               8.431               
N              61.922              7.258               7.138               
C              63.147              6.417               7.046               
C              63.625              6.367               5.596               
O              64.659              6.906               5.253               
C              62.83               4.999               7.526               
C              63.95               4.509               8.445               
C              64.006              5.39                9.695               
O              63.007              5.46                10.392              
O              65.047              5.979               9.934               
H              60.976              6.871               7.079               
H              63.857              6.811               7.625               
H              62.018              5.033               8.046               
H              62.808              4.419               6.756               
H              63.74               3.609               8.73                
H              64.793              4.606               7.981               
N              62.882              5.723               4.742               
C              63.296              5.636               3.314               
C              62.065              5.696               2.409               
O              60.949              5.502               2.848               
H              62.023              5.293               5.098               
H              63.905              6.4                 3.107               
H              63.779              4.774               3.169               
N              62.26               5.961               1.144               
C              61.103              6.028               0.208               
C              60.165              4.854               0.488               
O              58.975              4.924               0.251               
C              61.606              5.951               -1.235              
C              62.314              7.257               -1.599              
O              63.477              7.394               -1.254              
O              61.682              8.098               -2.216              
H              63.228              6.115               0.844               
H              60.608              6.865               0.426               
H              62.25               5.217               -1.3                
H              60.835              5.837               -1.826              
N              60.694              3.778               0.999               
C              59.84               2.6                 1.31                
C              60.69               1.329               1.251               
C              60.999              1.017               -0.177              
C              61.963              1.612               -0.917              
C              60.352              0.051               -1.048              
N              61.945              1.072               -2.192              
C              60.966              0.104               -2.322              
C              59.299              -0.855              -0.853              
C              60.544              -0.72               -3.371              
C              58.872              -1.684              -1.901              
C              59.492              -1.616              -3.159              
H              61.706              3.791               1.169               
H              59.088              2.602               0.66                
H              61.534              1.488               1.711               
H              60.177              0.585               1.615               
H              62.586              2.319               -0.612              
H              62.57               1.349               -2.938              
H              58.841              -0.92               0.039               
H              60.999              -0.664              -4.273              
H              58.129              -2.315              -1.742              
H              59.187              -2.199              -3.892              
H              43.9382             0.620785            -1.75745            
H              59.4185             2.72567             2.31609             
