205
1.xyz
C              -4.921              4.455               -14.472             
C              -5.51               4.97                -15.789             
O              -6.45               5.74                -15.801             
C              -5.84               3.383               -13.876             
C              -6.313              2.43                -14.977             
C              -7.098              1.275               -14.349             
C              -8.551              1.325               -14.827             
N              -9.291              0.149               -14.29              
H              -4.01               4.088               -14.644             
H              -5.332              2.867               -13.217             
H              -6.625              3.825               -13.49              
H              -6.907              2.921               -15.598             
H              -5.525              2.063               -15.45              
H              -6.7                0.423               -14.64              
H              -7.085              1.374               -13.37              
H              -8.97               2.161               -14.493             
H              -8.564              1.299               -15.819             
H              -8.931              -0.686              -14.705             
H              -9.173              0.108               -13.298             
H              -10.262             0.241               -14.509             
N              -4.964              4.549               -16.897             
C              -5.49               5.013               -18.211             
C              -4.582              6.112               -18.764             
O              -4.693              6.506               -19.908             
H              -4.175              3.9                 -16.812             
H              -5.509              4.242               -18.842             
H              -6.412              5.37                -18.083             
N              -3.683              6.611               -17.961             
C              -2.769              7.685               -18.442             
C              -1.552              7.054               -19.122             
O              -0.922              6.164               -18.586             
C              -2.308              8.531               -17.254             
C              -1.282              9.561               -17.73              
C              -1.411              10.834              -16.89              
O              -1.753              10.719              -15.725             
O              -1.165              11.901              -17.427             
H              -3.644              6.233               -17.01              
H              -3.258              8.264               -19.09              
H              -3.072              9.014               -16.915             
H              -1.868              7.949               -16.623             
H              -0.396              9.202               -17.582             
H              -1.483              9.794               -18.647             
N              -1.219              7.507               -20.299             
C              -0.043              6.934               -21.012             
C              1.237               7.6                 -20.503             
O              1.228               8.736               -20.073             
C              -0.184              7.187               -22.515             
C              -1.622              6.899               -22.951             
C              -1.811              7.339               -24.405             
N              -3.077              6.763               -24.939             
C              -3.137              5.501               -25.27              
N              -2.085              4.737               -25.139             
N              -4.249              5.002               -25.736             
H              -1.796              8.257               -20.692             
H              -0.003              5.957               -20.814             
H              0.006               8.128               -22.693             
H              0.407               6.574               -22.992             
H              -1.796              5.93                -22.897             
H              -2.247              7.416               -22.39              
H              -1.872              8.319               -24.429             
H              -1.057              6.996               -24.934             
H              -3.851              7.353               -25.032             
H              -1.221              5.078               -24.769             
H              -2.133              3.761               -25.417             
H              -5.072              5.575               -25.826             
H              -4.301              4.035               -26.012             
N              2.339               6.901               -20.545             
C              3.618               7.496               -20.063             
C              4.756               7.078               -20.996             
O              4.993               5.907               -21.215             
C              3.914               7                   -18.645             
C              2.863               7.554               -17.68              
C              2.262               6.406               -16.867             
C              3.52                8.56                -16.732             
H              2.275               5.949               -20.917             
H              3.526               8.488               -20.091             
H              3.841               6.034               -18.64              
H              4.776               7.346               -18.375             
H              2.143               7.999               -18.202             
H              2.986               5.954               -16.349             
H              1.576               6.77                -16.238             
H              1.834               5.751               -17.487             
H              3.912               9.309               -17.265             
H              2.832               8.92                -16.103             
H              4.242               8.103               -16.214             
N              5.463               8.026               -21.551             
C              6.583               7.675               -22.469             
C              7.758               7.136               -21.652             
O              8.586               7.883               -21.169             
C              7.023               8.921               -23.239             
C              7.65                8.501               -24.57              
C              7.633               9.685               -25.538             
H              5.21                8.991               -21.325             
H              6.26                6.947               -23.068             
H              6.237               9.476               -23.432             
H              7.703               9.4                 -22.717             
H              8.585               8.236               -24.413             
H              7.117               7.769               -24.957             
O              6.594               10.051              -26.051             
N              8.749               10.303              -25.811             
H              8.802               11.076              -26.448             
H              9.617               9.978               -25.347             
N              7.836               5.844               -21.494             
C              8.957               5.257               -20.709             
C              10.29               5.77                -21.259             
O              10.426              6.036               -22.437             
C              8.915               3.734               -20.82              
C              7.668               3.201               -20.112             
C              10.165              3.146               -20.162             
C              7.654               3.69                -18.663             
H              7.103               5.274               -21.928             
H              8.863               5.624               -19.788             
H              8.847               3.493               -21.78              
H              6.871               3.54                -20.569             
H              7.7                 2.221               -20.112             
H              10.139              2.152               -20.235             
H              10.976              3.495               -20.625             
H              10.187              3.411               -19.201             
H              7.643               4.686               -18.658             
H              6.839               3.338               -18.211             
H              8.471               3.356               -18.201             
N              11.274              5.908               -20.414             
C              12.599              6.403               -20.882             
C              13.63               5.28                -20.778             
O              13.872              4.551               -21.72              
C              13.041              7.574               -20.002             
C              14.47               7.98                -20.371             
C              12.1                8.759               -20.224             
H              11.087              5.663               -19.436             
H              12.503              6.655               -21.843             
H              13.068              7.261               -19.062             
H              14.509              8.969               -20.499             
H              15.089              7.712               -19.635             
H              14.735              7.521               -21.217             
H              11.52               8.87                -19.419             
H              12.643              9.584               -20.368             
H              11.534              8.581               -21.027             
N              14.239              5.139               -19.636             
C              15.256              4.068               -19.455             
C              14.853              3.198               -18.267             
O              14.389              3.69                -17.258             
C              16.621              4.701               -19.181             
C              17.725              3.803               -19.742             
H              13.983              5.793               -18.886             
H              15.217              3.497               -20.27              
H              16.665              5.57                -19.636             
H              16.745              4.779               -18.21              
O              17.449              2.77                -20.32              
N              18.972              4.155               -19.593             
H              19.17               5.022               -19.098             
H              19.718              3.606               -19.945             
N              15.023              1.911               -18.371             
C              14.641              1.031               -17.235             
C              14.804              -0.438              -17.624             
O              14.319              -0.881              -18.646             
C              13.185              1.291               -16.86              
C              12.384              1.639               -18.114             
H              15.418              1.557               -19.243             
H              15.29               1.218               -16.497             
H              12.806              0.474               -16.465             
H              13.147              2.056               -16.243             
O              12.068              2.789               -18.35              
N              12.037              0.686               -18.932             
H              12.308              -0.268              -18.704             
H              11.522              0.866               -19.759             
N              15.48               -1.192              -16.806             
C              15.687              -2.633              -17.104             
C              16.587              -3.236              -16.026             
O              17.38               -4.118              -16.286             
C              16.357              -2.777              -18.469             
O              16.532              -4.155              -18.766             
C              17.717              -2.079              -18.449             
H              15.854              -0.741              -15.96              
H              14.801              -3.085              -17.071             
H              15.748              -2.37               -19.182             
H              17.587              -1.087              -18.485             
H              18.206              -2.319              -17.609             
H              18.257              -2.371              -19.24              
H              15.664              -4.567              -19.07              
N              16.468              -2.765              -14.814             
C              17.315              -3.307              -13.719             
C              16.544              -3.257              -12.402             
O              16.36               -4.258              -11.737             
C              18.574              -2.45               -13.59              
C              19.797              -3.262              -14.015             
C              21.067              -2.511              -13.612             
O              21.363              -2.481              -12.429             
O              21.721              -1.977              -14.493             
H              15.777              -2.022              -14.668             
H              17.562              -4.25               -13.933             
H              18.492              -1.703              -14.197             
H              18.686              -2.216              -12.66              
H              19.789              -4.102              -13.536             
H              19.796              -3.338              -14.979             
N              16.089              -2.097              -12.025             
C              15.33               -1.97               -10.751             
C              13.828              -1.935              -11.025             
O              13.373              -2.213              -12.118             
H              16.279              -1.298              -12.64              
H              15.549              -2.752              -10.165             
H              15.609              -1.126              -10.291             
N              13.056              -1.591              -10.031             
H              13.519              -1.369              -9.139              
H              -4.83074            5.27897             -13.7725            
H              12.0325             -1.54937            -10.1531            
