320
5.xyz
C              52.342              43.366              3.95                
C              53.123              44.327              4.827               
O              52.561              45.211              5.433               
C              51.981              42.116              4.741               
C              50.795              41.317              4.24                
C              50.113              41.614              3.055               
C              50.328              40.261              4.996               
C              48.993              40.865              2.662               
C              49.241              39.529              4.608               
C              48.577              39.822              3.45                
O              47.447              39.052              3.109               
H              51.504              43.831              3.644               
H              52.783              41.505              4.749               
H              51.787              42.389              5.693               
H              50.422              42.366              2.479               
H              50.803              40.027              5.853               
H              48.515              41.098              1.818               
H              48.922              38.759              5.186               
H              47.381              39.018              2.119               
N              54.435              44.161              4.877               
C              55.302              45.021              5.665               
C              55.333              46.429              5.119               
O              55.698              47.369              5.875               
H              54.792              43.362              4.304               
H              54.976              45.038              6.622               
H              56.239              44.64               5.668               
N              54.965              46.631              3.866               
C              54.884              47.947              3.271               
C              53.645              48.665              3.833               
O              53.513              49.856              3.629               
C              54.746              47.941              1.733               
C              55.977              47.303              0.953               
H              54.736              45.751              3.339               
H              55.677              48.47               3.575               
H              53.939              47.413              1.479               
H              54.655              48.88               1.41                
O              57.106              47.447              1.396               
N              55.726              46.575              -0.199              
H              54.755              46.513              -0.458              
H              56.448              46.173              -0.69               
N              52.758              47.935              4.508               
C              51.483              48.479              4.977               
C              51.332              48.377              6.484               
O              50.395              47.776              6.955               
C              50.342              47.711              4.296               
C              50.509              47.425              2.821               
C              49.444              46.431              2.368               
C              50.403              48.754              2.056               
H              53.049              46.946              4.673               
H              51.439              49.456              4.715               
H              50.247              46.836              4.769               
H              49.509              48.248              4.412               
H              51.411              47.033              2.657               
H              48.537              46.818              2.531               
H              49.557              46.244              1.392               
H              49.542              45.581              2.885               
H              51.122              49.371              2.371               
H              50.512              48.579              1.079               
H              49.508              49.161              2.229               
N              52.182              49.034              7.278               
C              52.15               48.904              8.738               
C              50.828              49.36               9.399               
O              50.623              48.984              10.531              
C              53.334              49.805              9.168               
C              53.404              50.769              8.121               
C              53.23               49.974              6.845               
H              52.364              47.945              9.018               
H              53.131              50.21               10.065              
H              54.163              49.245              9.246               
H              52.675              51.466              8.187               
H              54.291              51.253              8.1                 
H              52.909              50.543              6.107               
H              54.057              49.493              6.604               
N              50.186              50.302              8.7                 
C              48.934              50.792              9.278               
C              47.685              50.154              8.661               
O              46.54               50.628              8.843               
C              48.884              52.298              9.144               
C              49.93               52.96               9.989               
O              50.263              54.112              9.703               
O              50.525              52.429              10.883              
H              50.598              50.604              7.843               
H              48.939              50.537              10.261              
H              49.042              52.53               8.192               
H              47.988              52.607              9.437               
N              47.878              49.056              8.004               
C              46.808              48.218              7.48                
C              46.73               46.944              8.288               
O              47.672              46.576              8.998               
C              46.971              47.945              5.991               
S              47.004              49.409              4.968               
H              48.899              48.799              7.869               
H              45.943              48.713              7.583               
H              47.829              47.443              5.862               
H              46.206              47.366              5.699               
N              45.626              46.143              8.129               
C              45.422              44.937              8.871               
C              45.026              43.832              7.894               
O              43.889              43.476              7.808               
C              44.391              45.195              9.985               
C              44.879              46.226              11.004              
H              44.963              46.518              7.409               
H              46.298              44.665              9.269               
H              43.557              45.536              9.568               
H              44.222              44.339              10.459              
O              45.572              45.912              11.947              
N              44.526              47.48               10.781              
H              43.964              47.712              9.984               
H              44.817              48.206              11.408              
N              46.028              43.289              7.206               
C              45.813              42.309              6.139               
C              45.174              41.001              6.591               
O              44.553              40.302              5.764               
C              47.236              42.028              5.643               
C              48.063              43.121              6.071               
C              47.454              43.59               7.379               
H              45.268              42.727              5.379               
H              47.556              41.132              6.017               
H              47.228              41.924              4.627               
H              49.02               42.839              6.225               
H              48.066              43.881              5.406               
H              47.833              43.086              8.152               
H              47.598              44.57               7.512               
N              45.332              40.61               7.846               
C              44.719              39.37               8.298               
C              43.22               39.441              8.314               
O              42.549              38.465              7.98                
C              45.21               39.02               9.71                
C              46.647              38.567              9.67                
C              47.129              38.21               11.046              
C              48.574              37.769              11.027              
N              48.964              37.425              12.443              
H              45.896              41.227              8.441               
H              45.01               38.621              7.674               
H              45.143              39.829              10.266              
H              44.651              38.287              10.055              
H              46.721              37.764              9.077               
H              47.214              39.305              9.303               
H              47.049              39.008              11.639              
H              46.575              37.463              11.406              
H              48.67               36.965              10.466              
H              49.144              38.508              10.711              
H              49.946              37.262              12.475              
H              48.723              38.188              13.037              
H              48.472              36.605              12.722              
N              42.648              40.578              8.727               
C              41.198              40.679              8.892               
C              40.452              41.556              7.928               
O              39.299              41.321              7.675               
C              40.871              41.137              10.314              
O              41.452              42.441              10.51               
H              43.304              41.354              8.913               
H              40.817              39.72               8.812               
H              39.898              41.208              10.418              
H              41.274              40.514              10.957              
H              42.093              42.621              9.771               
N              41.101              42.554              7.362               
C              40.441              43.494              6.472               
C              40.063              42.794              5.181               
O              40.895              42.14               4.591               
C              41.367              44.675              6.208               
C              40.659              45.874              5.68                
O              39.422              45.814              5.416               
O              41.256              46.979              5.512               
H              42.114              42.611              7.603               
H              39.587              43.778              6.916               
H              41.814              44.908              7.072               
H              42.055              44.379              5.547               
N              38.813              42.915              4.777               
C              38.311              42.251              3.584               
C              38.312              43.172              2.39                
O              37.976              44.335              2.455               
C              36.872              41.79               3.84                
C              36.715              40.776              4.935               
C              35.356              40.103              4.952               
N              35.144              39.351              6.184               
C              34.103              38.553              6.414               
N              34                  37.938              7.566               
N              33.218              38.344              5.487               
H              38.216              43.525              5.382               
H              38.903              41.455              3.384               
H              36.33               42.599              4.075               
H              36.522              41.396              2.989               
H              37.413              40.056              4.835               
H              36.848              41.219              5.831               
H              34.659              40.809              4.873               
H              35.308              39.482              4.175               
H              35.834              39.441              6.915               
H              34.668              38.059              8.297               
H              33.215              37.314              7.733               
H              33.3                38.8                4.59                
H              32.439              37.729              5.645               
N              38.691              42.659              1.247               
C              38.667              43.392              0                   
C              37.806              42.576              -0.972              
O              37.489              41.421              -0.698              
C              40.062              43.538              -0.577              
C              40.828              42.25               -0.678              
C              40.559              41.345              -1.681              
C              41.815              41.928              0.254               
C              41.288              40.138              -1.77               
C              42.484              40.737              0.226               
C              42.24               39.823              -0.798              
O              42.951              38.636              -0.868              
H              39.019              41.658              1.309               
H              38.219              44.264              0.145               
H              39.985              43.93               -1.495              
H              40.581              44.165              0.006               
H              39.85               41.525              -2.356              
H              42.035              42.606              0.969               
H              41.119              39.515              -2.531              
H              43.155              40.506              0.938               
H              43.779              38.722              -0.319              
N              37.432              43.212              -2.076              
C              36.656              42.582              -3.153              
C              37.492              42.501              -4.423              
O              38.3                43.391              -4.697              
C              35.385              43.383              -3.461              
C              34.403              43.474              -2.296              
C              33.82               42.114              -1.928              
C              32.605              42.293              -1.009              
N              32.008              40.974              -0.636              
H              37.739              44.215              -2.119              
H              36.406              41.653              -2.868              
H              35.655              44.31               -3.715              
H              34.92               42.945              -4.229              
H              34.88               43.847              -1.498              
H              33.654              44.089              -2.549              
H              33.524              41.656              -2.751              
H              34.502              41.589              -1.445              
H              32.897              42.769              -0.181              
H              31.92               42.842              -1.486              
H              31.747              40.993              0.328               
H              31.202              40.807              -1.201              
H              32.682              40.254              -0.789              
N              37.333              41.402              -5.131              
C              38.02               41.201              -6.395              
C              37.142              40.369              -7.279              
O              36.245              39.657              -6.79               
C              39.379              40.537              -6.188              
C              39.363              39.081              -5.836              
C              39.476              38.113              -6.819              
C              39.262              38.655              -4.528              
C              39.485              36.779              -6.503              
C              39.278              37.345              -4.2                
C              39.384              36.387              -5.184              
O              39.409              35.048              -4.836              
H              36.684              40.701              -4.716              
H              38.155              42.094              -6.824              
H              39.912              40.652              -7.038              
H              39.858              41.035              -5.451              
H              39.552              38.396              -7.782              
H              39.175              39.353              -3.8                
H              39.566              36.085              -7.226              
H              39.212              37.053              -3.235              
H              39.547              34.502              -5.659              
N              37.384              40.465              -8.572              
C              36.643              39.701              -9.55               
C              37.65               39.082              -10.524             
O              38.852              39.359              -10.446             
C              35.663              40.593              -10.292             
C              36.324              41.74               -10.976             
C              35.3                42.614              -11.702             
C              35.951              43.716              -12.442             
N              34.898              44.556              -13.101             
H              38.148              41.132              -8.823              
H              36.15               38.964              -9.096              
H              35.192              40.036              -10.973             
H              35.003              40.945              -9.63               
H              36.801              42.311              -10.305             
H              36.982              41.404              -11.651             
H              34.794              42.032              -12.337             
H              34.674              42.988              -11.019             
H              36.47               44.294              -11.818             
H              36.551              43.352              -13.149             
H              34.866              44.335              -14.073             
H              34.015              44.362              -12.679             
H              35.127              45.52               -12.98              
N              37.139              38.259              -11.438             
C              37.915              37.584              -12.475             
C              37.457              38.101              -13.798             
O              36.236              38.158              -14.052             
C              37.651              36.087              -12.396             
C              38.133              35.399              -11.174             
C              39.593              34.977              -11.279             
N              40.098              34.367              -10.059             
C              41.32               33.887              -9.919              
N              41.726              33.374              -8.78               
N              42.17               33.921              -10.933             
H              36.092              38.131              -11.347             
H              38.879              37.805              -12.344             
H              36.653              35.949              -12.473             
H              38.085              35.658              -13.201             
H              38.052              36.004              -10.376             
H              37.593              34.569              -11.004             
H              39.67               34.324              -12.034             
H              40.133              35.793              -11.491             
H              39.473              34.307              -9.269              
H              41.108              33.316              -7.993              
H              42.668              33.03               -8.687              
H              41.874              34.296              -11.816             
H              43.1                33.576              -10.825             
N              38.408              38.581              -14.594             
C              38.173              39.04               -15.96              
C              38.571              40.506              -16.162             
C              38.396              40.907              -17.621             
C              37.724              41.418              -15.283             
H              39.363              38.603              -14.148             
H              37.236              38.889              -16.183             
H              39.54               40.592              -15.953             
H              38.365              41.904              -17.691             
H              39.165              40.559              -18.157             
H              37.543              40.522              -17.973             
H              37.529              42.264              -15.778             
H              36.868              40.954              -15.056             
H              38.227              41.627              -14.445             
S              45.223              50.349              5.272               
H              38.7805             38.3427             -16.5532            
H              52.9083             43.1032             3.10055             
H              44.3642             49.6667             4.44698             
