203
4.xyz
C              24.233              -2.866              25.76               
O              25.073              -2.987              24.904              
N              24.508              -2.347              26.947              
C              25.852              -1.883              27.294              
C              26.774              -3.096              27.457              
O              26.495              -4.013              28.238              
C              25.777              -1.045              28.591              
C              27.064              -0.266              28.92               
H              23.703              -2.297              27.602              
H              26.195              -1.359              26.517              
H              25.031              -0.387              28.496              
H              25.584              -1.664              29.352              
O              27.306              0.037               30.099              
N              27.866              0.081               27.919              
H              27.591              -0.178              26.981              
H              28.703              0.576               28.083              
N              27.873              -3.08               26.692              
C              28.896              -4.13               26.727              
C              30.291              -3.513              26.773              
O              30.481              -2.36               26.354              
C              28.792              -5.096              25.495              
C              27.45               -5.847              25.465              
C              29.029              -4.361              24.14               
H              27.939              -2.246              26.061              
H              28.764              -4.664              27.567              
H              29.507              -5.782              25.597              
H              26.71               -5.199              25.629              
H              27.335              -6.273              24.571              
H              27.452              -6.546              26.176              
H              29.733              -4.851              23.639              
H              28.174              -4.36               23.633              
H              29.321              -3.432              24.337              
N              31.254              -4.282              27.251              
C              32.636              -3.796              27.279              
C              33.159              -3.6                25.859              
O              32.902              -4.422              24.946              
C              33.521              -4.742              28.073              
H              30.966              -5.209              27.587              
H              32.657              -2.912              27.754              
H              33.336              -4.634              29.05               
H              33.331              -5.686              27.803              
H              34.482              -4.533              27.892              
N              33.9                -2.504              25.674              
C              34.588              -2.232              24.411              
C              35.863              -3.014              24.31               
O              36.478              -3.32               25.322              
C              34.98               -0.757              24.326              
S              33.61               0.399               24.459              
H              33.944              -1.869              26.496              
H              33.975              -2.512              23.66               
H              35.629              -0.568              25.065              
H              35.436              -0.611              23.445              
N              36.294              -3.298              23.087              
C              37.568              -3.988              22.881              
C              38.762              -3.293              23.554              
O              39.663              -3.953              24.033              
C              37.851              -4.252              21.391              
C              36.979              -5.315              20.784              
C              37.242              -5.431              19.305              
C              36.495              -6.612              18.757              
N              36.474              -6.509              17.277              
H              35.673              -3                  22.318              
H              37.494              -4.929              23.258              
H              37.708              -3.395              20.899              
H              38.807              -4.53               21.309              
H              37.176              -6.193              21.219              
H              36.019              -5.078              20.927              
H              36.922              -4.61               18.854              
H              38.211              -5.566              19.158              
H              36.958              -7.45               19.02               
H              35.563              -6.604              19.099              
H              36.264              -7.404              16.883              
H              35.775              -5.85               16.998              
H              37.369              -6.203              16.951              
N              38.73               -1.963              23.624              
C              39.82               -1.211              24.272              
C              39.661              -1.069              25.799              
O              40.453              -0.391              26.467              
C              39.973              0.177               23.613              
C              38.928              1.179               24.084              
H              37.904              -1.516              23.2                
H              40.674              -1.736              24.116              
H              40.877              0.529               23.839              
H              39.885              0.063               22.628              
O              37.886              0.823               24.644              
N              39.2                2.459               23.827              
H              40.039              2.711               23.35               
H              38.557              3.171               24.115              
N              38.613              -1.687              26.344              
C              38.377              -1.661              27.775              
C              37.533              -0.512              28.29               
O              37.248              -0.45               29.502              
H              37.998              -2.176              25.665              
H              37.937              -2.549              28.057              
H              39.285              -1.652              28.263              
N              37.161              0.425               27.409              
C              36.204              1.445               27.802              
C              34.836              0.809               27.994              
O              34.615              -0.344              27.593              
C              36.129              2.56                26.764              
C              37.249              3.584               26.886              
C              37.1                4.698               25.869              
H              37.594              0.355               26.483              
H              36.493              1.822               28.684              
H              36.178              2.156               25.85               
H              35.257              3.041               26.868              
H              37.223              3.979               27.799              
H              38.119              3.126               26.734              
O              37.846              4.751               24.888              
N              36.115              5.583               26.084              
H              35.969              6.358               25.454              
H              35.519              5.453               26.899              
N              33.933              1.561               28.604              
C              32.622              1.074               28.997              
C              31.494              1.654               28.133              
O              30.322              1.468               28.44               
C              32.329              1.395               30.487              
O              32.289              2.818               30.668              
C              33.396              0.803               31.39               
H              34.248              2.549               28.781              
H              32.605              0.066               28.894              
H              31.415              1.016               30.726              
H              33.932              1.538               31.813              
H              32.967              0.255               32.112              
H              34.01               0.217               30.855              
H              32.935              3.267               30.042              
N              31.851              2.391               27.082              
C              30.865              3.137               26.289              
C              30.431              2.42                25.021              
O              30.134              3.061               24.016              
C              31.376              4.546               25.948              
C              32.595              4.544               25.045              
H              32.867              2.394               26.874              
H              30.039              3.241               26.872              
H              30.64               5.042               25.49               
H              31.612              5.007               26.803              
O              33.488              3.706               25.171              
N              32.627              5.49                24.104              
H              31.879              6.148               24.031              
H              33.401              5.539               23.473              
N              30.413              1.089               25.05               
C              29.955              0.328               23.889              
C              28.598              -0.292              24.085              
O              28.168              -0.577              25.216              
C              30.971              -0.742              23.495              
S              32.494              -0.031              22.803              
H              30.737              0.661               25.928              
H              29.906              0.967               23.1                
H              31.213              -1.259              24.302              
H              30.563              -1.323              22.806              
N              27.903              -0.49               22.969              
C              26.527              -0.948              22.989              
C              26.302              -1.926              21.872              
O              26.742              -1.689              20.737              
C              25.56               0.238               22.859              
C              25.801              1.211               23.965              
C              26.766              2.199               23.824              
C              25.103              1.109               25.186              
C              27.064              3.07                24.857              
C              25.389              1.991               26.228              
C              26.378              2.961               26.057              
O              26.697              3.871               27.049              
H              28.43               -0.289              22.092              
H              26.363              -1.417              23.864              
H              25.732              0.678               21.999              
H              24.644              -0.107              22.929              
H              27.261              2.284               22.953              
H              24.413              0.413               25.298              
H              27.766              3.773               24.741              
H              24.892              1.931               27.089              
H              27.153              4.655               26.635              
N              25.649              -3.037              22.204              
C              25.268              -4.062              21.225              
C              23.8                -3.918              20.825              
O              22.919              -3.74               21.677              
C              25.522              -5.444              21.817              
C              25.271              -6.605              20.892              
C              25.782              -7.874              21.501              
H              25.429              -3.12               23.223              
H              25.826              -3.923              20.401              
H              26.484              -5.487              22.125              
H              24.933              -5.556              22.632              
H              24.293              -6.69               20.739              
H              25.745              -6.443              20.034              
O              26.935              -7.939              21.924              
N              24.924              -8.866              21.606              
H              25.199              -9.772              21.999              
H              23.962              -8.729              21.289              
N              23.526              -4.001              19.519              
C              22.16               -3.92               19.017              
C              21.333              -5.098              19.499              
O              21.815              -6.226              19.543              
C              22.18               -3.832              17.479              
O              22.696              -5.01               16.867              
H              24.357              -4.126              18.91               
H              21.744              -3.078              19.38               
H              21.245              -3.684              17.157              
H              22.75               -3.054              17.213              
H              21.938              -5.569              16.538              
N              20.081              -4.836              19.877              
H              19.803              -3.849              19.837              
H              19.4739             -5.58886            20.1781             
H              23.2453             -3.19126            25.5792             
