176
1.xyz
C              7.611               8.645               -5.98               
C              8.815               9.379               -5.41               
O              9.532               10.072              -6.133              
C              6.324               9.255               -5.417              
C              6.119               10.698              -5.854              
O              6.578               11.63               -5.195              
N              5.428               10.897              -6.97               
H              7.657               8.732               -6.977              
H              5.552               8.715               -5.739              
H              6.372               9.229               -4.423              
H              5.067               10.107              -7.473              
H              5.267               11.821              -7.307              
N              9.045               9.203               -4.111              
C              10.168              9.849               -3.448              
C              10.346              9.363               -2.009              
O              11.287              8.635               -1.7                
C              9.965               11.368              -3.464              
O              8.659               11.708              -3.012              
H              8.371               8.582               -3.628              
H              11.011              9.616               -3.956              
H              10.634              11.788              -2.862              
H              10.079              11.697              -4.395              
H              8.017               11.638              -3.773              
N              9.41                9.729               -1.147              
C              9.59                9.562               0.29                
C              9.064               8.219               0.793               
O              9.481               7.744               1.843               
C              8.882               10.703              1.021               
C              9.234               10.81               2.498               
C              8.491               11.962              3.153               
N              8.684               13.214              2.422               
C              7.724               14.114              2.222               
N              6.504               13.91               2.699               
N              7.974               15.214              1.531               
H              8.555               10.136              -1.573              
H              10.579              9.618               0.503               
H              9.135               11.56               0.581               
H              7.899               10.558              0.949               
H              8.977               9.969               2.962               
H              10.21               10.974              2.595               
H              7.522               11.737              3.169               
H              8.837               12.066              4.08                
H              9.596               13.406              2.048               
H              6.289               13.094              3.23                
H              5.781               14.589              2.524               
H              8.9                 15.375              1.174               
H              7.253               15.882              1.364               
N              8.165               7.602               0.042               
C              7.499               6.39                0.51                
C              8.471               5.219               0.623               
O              8.329               4.372               1.504               
C              6.328               6.001               -0.4                
C              5.573               4.807               0.17                
C              5.398               7.183               -0.578              
H              7.98                8.039               -0.877              
H              7.126               6.573               1.43                
H              6.704               5.713               -1.277              
H              5.603               4.839               1.169               
H              4.622               4.837               -0.136              
H              5.999               3.96                -0.149              
H              4.569               6.887               -1.054              
H              5.153               7.553               0.319               
H              5.857               7.891               -1.117              
N              9.46                5.174               -0.258              
C              10.502              4.152               -0.181              
C              11.293              4.296               1.119               
O              11.819              3.317               1.655               
C              11.459              4.267               -1.371              
C              10.841              3.893               -2.707              
C              10.601              2.398               -2.817              
N              11.849              1.634               -2.805              
C              12.001              0.444               -3.38               
N              10.993              -0.11               -4.047              
N              13.164              -0.191              -3.303              
H              9.433               5.908               -0.989              
H              10.07               3.246               -0.194              
H              11.772              5.211               -1.427              
H              12.233              3.661               -1.207              
H              9.964               4.358               -2.81               
H              11.456              4.164               -3.445              
H              10.037              2.116               -2.045              
H              10.118              2.223               -3.672              
H              12.641              2.034               -2.332              
H              10.121              0.361               -4.144              
H              11.114              -1.02               -4.462              
H              13.932              0.243               -2.824              
H              13.276              -1.09               -3.717              
N              11.358              5.524               1.62                
C              12.093              5.829               2.842               
C              11.141              5.82                4.041               
O              11.563              5.931               5.193               
C              12.776              7.197               2.695               
C              13.817              7.505               3.764               
C              14.525              8.826               3.521               
H              10.843              6.245               1.069               
H              12.772              5.106               2.988               
H              13.228              7.233               1.8                 
H              12.071              7.911               2.732               
H              13.361              7.547               4.651               
H              14.497              6.774               3.768               
O              14.672              9.268               2.378               
N              14.977              9.464               4.589               
H              15.473              10.347              4.503               
H              14.819              9.055               5.511               
N              9.854               5.678               3.755               
C              8.829               5.629               4.786               
C              8.773               4.231               5.402               
O              8.837               3.227               4.69                
C              7.467               5.997               4.181               
O              6.441               5.994               5.161               
H              9.642               5.605               2.735               
H              9.081               6.273               5.512               
H              7.531               6.908               3.781               
H              7.242               5.331               3.474               
H              6.363               5.081               5.558               
N              8.662               4.154               6.736               
C              8.569               2.878               7.458               
C              7.381               2.042               6.989               
O              6.307               2.573               6.683               
C              8.379               3.302               8.918               
C              8.919               4.689               8.987               
C              8.628               5.307               7.651               
H              9.43                2.357               7.369               
H              7.406               3.281               9.167               
H              8.882               2.687               9.532               
H              8.472               5.206               9.727               
H              9.91                4.673               9.167               
H              7.728               5.741               7.635               
H              9.325               5.978               7.396               
N              7.582               0.731               6.945               
C              6.569               -0.192              6.458               
C              5.388               -0.261              7.407               
O              4.313               -0.707              7.021               
C              7.155               -1.583              6.227               
C              8.09                -1.684              5.027               
C              9.463               -2.171              5.454               
C              7.489               -2.603              3.975               
H              8.519               0.424               7.286               
H              6.241               0.135               5.562               
H              7.674               -1.833              7.032               
H              6.405               -2.21               6.076               
H              8.175               -0.781              4.602               
H              9.383               -3.075              5.876               
H              10.062              -2.231              4.654               
H              9.856               -1.531              6.115               
H              6.607               -2.237              3.674               
H              8.108               -2.665              3.191               
H              7.355               -3.515              4.364               
N              5.596               0.157               8.649               
C              4.498               0.291               9.598               
C              3.387               1.158               9.006               
O              2.205               0.845               9.142               
C              4.995               0.875               10.911              
H              6.583               0.374               8.88                
H              4.122               -0.62               9.792               
H              4.409               1.639               11.181              
H              4.971               0.171               11.621              
H              5.934               1.201               10.799              
N              3.776               2.246               8.347               
C              2.83                3.061               7.604               
C              2.364               2.328               6.349               
O              1.17                2.151               6.135               
C              3.441               4.415               7.185               
O              3.79                5.181               8.347               
C              2.467               5.209               6.305               
H              4.791               2.454               8.41                
H              2.026               3.233               8.184               
H              4.295               4.239               6.652               
H              1.533               4.888               6.467               
H              2.529               6.181               6.531               
H              2.703               5.075               5.342               
H              4.254               4.598               9.022               
N              3.326               1.875               5.547               
H              4.285               1.928               5.947               
H              7.68233             7.61139             -5.75071            
H              3.12894             1.50933             4.62137             
