301
6.xyz
C              21.456              5.289               17.89               
O              21.975              5.471               19                  
N              20.329              4.597               17.71               
C              19.577              3.997               18.822              
C              20.408              2.984               19.607              
O              20.145              2.744               20.781              
C              18.311              3.337               18.307              
H              20.026              4.517               16.715              
H              19.292              4.736               19.451              
H              18.468              2.356               18.187              
H              17.569              3.475               18.963              
H              18.055              3.741               17.428              
N              21.404              2.384               18.961              
C              22.236              1.382               19.625              
C              22.924              1.957               20.877              
O              23.186              1.218               21.836              
C              23.246              0.73                18.647              
C              24.108              -0.318              19.352              
C              22.499              0.065               17.504              
H              21.534              2.679               17.98               
H              21.642              0.626               19.925              
H              23.862              1.446               18.329              
H              23.741              -0.487              20.265              
H              24.096              -1.165              18.823              
H              25.045              0.019               19.424              
H              22.883              0.373               16.633              
H              22.594              -0.928              17.579              
H              21.531              0.314               17.551              
N              23.173              3.268               20.887              
C              23.829              3.914               22.03               
C              23.009              3.852               23.319              
O              23.537              4.158               24.386              
C              24.192              5.37                21.723              
S              25.395              5.563               20.386              
H              22.871              3.778               20.039              
H              24.709              3.436               22.196              
H              23.357              5.849               21.466              
H              24.575              5.774               22.55               
N              21.732              3.467               23.21               
C              20.844              3.277               24.37               
C              20.542              1.793               24.636              
O              19.687              1.464               25.467              
C              19.528              4.031               24.154              
O              18.722              3.362               23.188              
H              21.415              3.311               22.226              
H              21.315              3.645               25.183              
H              19.034              4.069               25.014              
H              19.732              4.945               23.825              
H              19.27               3.175               22.375              
N              21.247              0.908               23.93               
C              20.961              -0.518              23.999              
C              21.917              -1.233              24.979              
O              22.136              -0.7                26.063              
C              20.843              -1.108              22.585              
C              19.65               -0.464              21.842              
C              19.442              -0.94               20.413              
H              21.997              1.318               23.344              
H              20.027              -0.637              24.354              
H              21.659              -0.903              22.08               
H              20.672              -2.073              22.65               
H              18.814              -0.658              22.371              
H              19.793              0.534               21.833              
O              19.968              -1.97               19.997              
N              18.653              -0.183              19.654              
H              18.477              -0.43               18.682              
H              18.228              0.646               20.061              
N              22.459              -2.405              24.638              
C              23.158              -3.22               25.639              
C              23.155              -4.701              25.255              
C              23.817              -5.572              26.296              
C              23.961              -6.999              25.822              
C              24.619              -7.841              26.905              
N              24.823              -9.249              26.461              
H              22.348              -2.675              23.653              
H              22.662              -3.154              26.513              
H              22.211              -4.991              25.15               
H              23.647              -4.798              24.397              
H              24.728              -5.204              26.501              
H              23.265              -5.561              27.134              
H              23.064              -7.373              25.635              
H              24.534              -7.02               25.016              
H              25.507              -7.437              27.136              
H              24.036              -7.835              27.721              
H              24.21               -9.447              25.697              
H              25.771              -9.37               26.17               
H              24.624              -9.867              27.22               
C              29.293              6.165               21.722              
C              29.903              7.227               22.626              
O              30.432              6.917               23.698              
C              27.845              5.911               22.119              
S              27.066              4.641               21.107              
H              29.31               6.51                20.775              
H              27.828              5.613               23.064              
H              27.338              6.756               22.006              
N              29.832              8.478               22.178              
C              30.347              9.626               22.932              
C              29.52               10.856              22.611              
O              28.825              10.892              21.59               
C              31.794              9.933               22.555              
C              32.799              8.876               23.004              
C              34.232              9.226               22.66               
O              34.46               10.138              21.833              
O              35.133              8.558               23.204              
H              29.377              8.575               21.241              
H              30.299              9.43                23.913              
H              31.845              9.99                21.573              
H              32.046              10.782              22.986              
H              32.738              8.793               23.983              
H              32.58               8.031               22.548              
N              29.613              11.854              23.485              
C              29.13               13.204              23.201              
C              27.736              13.514              23.693              
O              27.05               12.654              24.248              
H              30.061              11.591              24.393              
H              29.789              13.88               23.606              
H              29.173              13.361              22.186              
N              27.34               14.772              23.5                
C              25.974              15.218              23.699              
C              25.556              15.936              22.415              
O              26.015              17.054              22.168              
C              25.872              16.138              24.923              
C              24.429              16.5                25.282              
H              28.112              15.415              23.189              
H              25.402              14.412              23.777              
H              26.281              15.673              25.703              
H              26.367              16.98               24.727              
O              23.471              15.91               24.776              
N              24.278              17.467              26.171              
H              25.078              17.923              26.565              
H              23.359              17.751              26.456              
N              24.695              15.298              21.596              
C              23.99               14.047              21.873              
C              24.918              12.828              21.83               
O              25.988              12.87               21.216              
C              22.971              13.966              20.738              
C              23.639              14.654              19.607              
C              24.371              15.803              20.245              
H              23.512              14.094              22.765              
H              22.769              13.01               20.513              
H              22.12               14.429              20.994              
H              24.28               14.039              19.142              
H              22.965              14.986              18.943              
H              25.209              16.027              19.747              
H              23.793              16.619              20.307              
N              24.493              11.764              22.498              
C              25.273              10.529              22.599              
C              25.073              9.7                 21.343              
O              23.998              9.132               21.129              
C              24.784              9.745               23.803              
C              25.768              8.778               24.427              
C              27.055              9.185               24.788              
C              25.378              7.474               24.737              
C              27.944              8.3                 25.4                
C              26.252              6.582               25.35               
C              27.535              6.998               25.679              
O              28.401              6.12                26.304              
H              23.556              11.879              22.946              
H              26.241              10.775              22.665              
H              24.503              10.401              24.517              
H              23.968              9.217               23.528              
H              27.346              10.123              24.606              
H              24.45               7.176               24.514              
H              28.867              8.599               25.637              
H              25.959              5.65                25.552              
H              29.136              5.885               25.673              
N              26.102              9.64                20.503              
C              25.992              9.037               19.172              
C              27.194              8.133               18.868              
O              28.231              8.244               19.528              
C              25.885              10.131              18.063              
C              24.519              10.845              18.101              
C              27.024              11.127              18.188              
H              26.986              10.054              20.867              
H              25.165              8.464               19.155              
H              25.945              9.671               17.183              
H              23.8                10.178              17.927              
H              24.392              11.255              19.001              
H              24.504              11.553              17.4                
H              26.991              11.558              19.09               
H              27.896              10.65               18.077              
H              26.932              11.827              17.479              
N              27.053              7.22                17.888              
C              28.175              6.346               17.556              
C              29.372              7.124               17.012              
O              29.206              8.004               16.163              
C              27.591              5.412               16.48               
C              26.107              5.49                16.669              
C              25.859              6.917               17.073              
H              28.448              5.792               18.358              
H              27.853              5.725               15.564              
H              27.921              4.475               16.612              
H              25.633              5.271               15.816              
H              25.812              4.858               17.385              
H              25.814              7.519               16.283              
H              25.031              7.005               17.62               
N              30.563              6.808               17.518              
C              31.79               7.431               17.008              
C              32.832              6.398               16.526              
O              33.796              6.764               15.874              
C              32.447              8.408               18.033              
C              31.566              9.617               18.274              
C              32.728              7.69                19.351              
H              30.549              6.109               18.276              
H              31.544              8.007               16.214              
H              33.295              8.732               17.625              
H              30.613              9.386               18.072              
H              31.641              9.904               19.23               
H              31.856              10.369              17.681              
H              32.678              8.349               20.1                
H              32.046              6.973               19.485              
H              33.641              7.286               19.316              
N              32.626              5.12                16.848              
C              33.566              4.034               16.488              
C              32.762              2.757               16.272              
O              31.805              2.492               17.003              
C              34.61               3.87                17.614              
C              35.468              5.072               17.845              
H              31.744              4.943               17.378              
H              34.01               4.28                15.633              
H              34.125              3.653               18.471              
H              35.207              3.09                17.385              
N              36.226              5.654               16.851              
C              35.707              5.787               18.97               
C              36.876              6.69                17.349              
N              36.58               6.791               18.632              
H              36.273              5.339               15.904              
H              35.323              5.617               19.873              
H              37.487              7.293               16.844              
N              33.121              1.986               15.248              
C              32.549              0.656               15.071              
C              33.519              -0.342              15.68               
O              34.661              -0.449              15.219              
C              32.35               0.353               13.581              
C              31.562              -0.895              13.33               
C              30.201              -0.829              13.063              
C              32.179              -2.144              13.383              
C              29.465              -1.995              12.852              
C              31.447              -3.309              13.164              
C              30.095              -3.231              12.901              
H              33.82               2.402               14.609              
H              31.717              0.621               15.615              
H              31.862              1.113               13.183              
H              33.243              0.242               13.176              
H              29.742              0.05                13.019              
H              33.156              -2.204              13.579              
H              28.479              -1.93               12.666              
H              31.917              -4.205              13.202              
H              29.56               -4.064              12.743              
N              33.078              -1.083              16.696              
C              34.005              -1.956              17.429              
C              34.057              -3.391              16.927              
O              35.143              -3.971              16.801              
C              33.679              -1.925              18.923              
C              34.878              -2.243              19.789              
O              35.948              -1.629              19.57               
O              34.748              -3.081              20.709              
H              32.08               -0.995              16.913              
H              34.938              -1.561              17.306              
H              33.354              -1.013              19.147              
H              32.97               -2.598              19.096              
N              32.885              -3.965              16.652              
C              32.791              -5.377              16.294              
C              31.402              -5.72               15.8                
O              30.462              -4.947              15.977              
C              33.115              -6.243              17.515              
H              32.066              -3.333              16.714              
H              33.455              -5.567              15.559              
H              33.976              -6.723              17.359              
H              33.197              -5.659              18.32               
H              32.381              -6.905              17.653              
N              31.283              -6.891              15.18               
C              29.984              -7.53               14.992              
C              30.04               -8.91               15.625              
O              31.09               -9.561              15.614              
C              29.629              -7.658              13.517              
O              30.59               -8.431              12.832              
H              32.177              -7.302              14.848              
H              29.3                -6.993              15.478              
H              28.739              -8.099              13.436              
H              29.596              -6.747              13.113              
H              31.025              -7.876              12.123              
N              28.913              -9.353              16.174              
C              28.847              -10.652             16.85               
C              27.593              -11.434             16.478              
O              26.598              -10.876             16.016              
C              28.941              -10.521             18.397              
C              30.297              -9.943              18.815              
C              27.799              -9.679              18.949              
O              27.536              -12.651             16.649              
H              28.101              -8.715              16.085              
H              29.65               -11.194             16.56               
H              28.886              -11.437             18.778              
H              30.218              -8.952              18.906              
H              30.568              -10.34              19.69               
H              30.978              -10.164             18.119              
H              26.928              -10.094             18.689              
H              27.87               -9.64               19.945              
H              27.858              -8.755              18.571              
H              21.9153             5.6708              17.0057             
H              29.8535             5.25878             21.7548             
H              24.1871             -2.8674             25.7905             
