231
5.xyz
C              42.133              -2.16               -3.227              
O              41.185              -1.746              -3.895              
N              42.272              -3.428              -2.865              
C              41.322              -4.451              -3.28               
C              40.742              -5.148              -2.06               
O              41.462              -5.414              -1.092              
C              41.982              -5.45               -4.217              
H              43.102              -3.625              -2.271              
H              40.574              -4.013              -3.787              
H              42.944              -5.207              -4.343              
H              41.921              -6.368              -3.825              
H              41.518              -5.436              -5.103              
N              39.443              -5.436              -2.128              
C              38.677              -5.928              -0.987              
C              37.759              -7.075              -1.338              
O              37.211              -7.136              -2.435              
C              37.809              -4.806              -0.413              
C              38.618              -3.728              0.223               
C              39.062              -2.644              -0.524              
C              38.972              -3.809              1.567               
C              39.837              -1.658              0.042               
C              39.753              -2.832              2.151               
C              40.184              -1.756              1.377               
O              40.949              -0.778              1.963               
H              39.019              -5.279              -3.072              
H              39.337              -6.251              -0.283              
H              37.28               -4.416              -1.158              
H              37.208              -5.203              0.271               
H              38.812              -2.581              -1.495              
H              38.655              -4.582              2.111               
H              40.147              -0.877              -0.502              
H              40.01               -2.888              3.112               
H              41.053              -0.98               2.936               
N              37.593              -7.977              -0.38               
C              36.531              -8.966              -0.425              
C              35.276              -8.361              0.222               
O              35.343              -7.732              1.289               
C              36.987              -10.23              0.297               
C              35.921              -11.282             0.545               
C              36.514              -12.525             1.227               
C              37.346              -12.192             2.482               
N              36.545              -11.805             3.679               
H              38.285              -7.914              0.399               
H              36.321              -9.186              -1.375              
H              37.723              -10.652             -0.247              
H              37.373              -9.958              1.188               
H              35.214              -10.904             1.139               
H              35.52               -11.56              -0.325              
H              35.766              -13.127             1.5                 
H              37.107              -12.996             0.577               
H              37.913              -13.001             2.709               
H              37.981              -11.437             2.249               
H              36.657              -12.499             4.389               
H              36.865              -10.921             4.019               
H              35.581              -11.738             3.424               
N              34.145              -8.514              -0.464              
C              32.855              -8.011              -0.005              
C              32.046              -9.166              0.577               
O              31.763              -10.131             -0.134              
C              32.064              -7.36               -1.179              
O              32.745              -6.176              -1.605              
C              30.622              -7.007              -0.778              
H              34.263              -9.031              -1.37               
H              33.012              -7.34               0.719               
H              32.043              -8.018              -1.954              
H              29.986              -7.413              -1.434              
H              30.434              -7.366              0.136               
H              30.512              -6.013              -0.776              
H              33.376              -5.858              -0.889              
N              31.684              -9.072              1.865               
C              30.894              -10.112             2.528               
C              29.715              -9.533              3.304               
O              29.89               -8.749              4.243               
C              31.75               -10.984             3.488               
O              32.883              -11.506             2.781               
C              30.923              -12.163             4.029               
H              32.009              -8.209              2.342               
H              30.532              -10.736             1.819               
H              32.089              -10.393             4.245               
H              29.973              -12.064             3.735               
H              31.296              -13.02              3.674               
H              30.966              -12.167             5.028               
H              32.835              -11.252             1.809               
N              28.519              -9.934              2.893               
C              27.287              -9.552              3.565               
C              27.027              -10.454             4.78                
O              27.312              -11.658             4.765               
C              26.119              -9.647              2.579               
C              24.736              -9.302              3.116               
C              24.578              -7.856              3.547               
O              23.794              -7.533              4.444               
N              25.338              -6.974              2.91                
H              28.539              -10.548             2.045               
H              27.391              -8.612              3.905               
H              26.309              -9.032              1.796               
H              26.083              -10.594             2.216               
H              24.057              -9.497              2.399               
H              24.544              -9.894              3.907               
H              25.279              -5.979              3.133               
H              25.982              -7.301              2.195               
N              26.47               -9.865              5.829               
C              26.086              -10.62              7.018               
C              24.882              -9.973              7.679               
O              24.543              -8.819              7.382               
C              27.262              -10.682             8.016               
H              26.333              -8.84               5.735               
H              25.841              -11.554             6.742               
H              27.151              -11.484             8.597               
H              28.116              -10.746             7.506               
H              27.258              -9.856              8.572               
N              24.249              -10.722             8.577               
C              23.222              -10.196             9.472               
C              23.651              -10.531             10.883              
O              23.603              -11.688             11.308              
C              21.851              -10.776             9.138               
C              21.342              -10.285             7.811               
H              24.551              -11.726             8.588               
H              23.235              -9.207              9.384               
H              21.929              -11.767             9.107               
H              21.213              -10.501             9.851               
O              20.737              -9.216              7.724               
N              21.595              -11.057             6.763               
H              22.094              -11.917             6.879               
H              21.287              -10.782             5.851               
N              24.11               -9.505              11.594              
C              24.774              -9.688              12.879              
C              24.434              -8.543              13.82               
O              23.95               -7.488              13.39               
C              26.297              -9.758              12.685              
C              26.768              -11.103             12.125              
C              28.281              -11.193             12.014              
C              28.683              -12.574             11.509              
N              30.152              -12.626             11.268              
H              23.955              -8.572              11.158              
H              24.457              -10.55              13.29               
H              26.563              -9.046              12.048              
H              26.729              -9.619              13.567              
H              26.441              -11.835             12.73               
H              26.366              -11.232             11.214              
H              28.598              -10.516             11.368              
H              28.68               -11.056             12.907              
H              28.437              -13.254             12.195              
H              28.202              -12.76              10.656              
H              30.339              -13.226             10.491              
H              30.488              -11.706             11.07               
H              30.609              -12.981             12.083              
N              24.673              -8.763              15.107              
C              24.534              -7.692              16.074              
C              25.757              -6.831              15.933              
O              26.874              -7.347              15.798              
C              24.443              -8.249              17.489              
C              23.298              -9.186              17.677              
H              24.955              -9.727              15.345              
H              23.733              -7.154              15.84               
H              25.293              -8.739              17.705              
H              24.338              -7.487              18.135              
N              22.03               -8.758              18.003              
C              23.218              -10.529             17.535              
C              21.223              -9.802              18.079              
N              21.919              -10.888             17.803              
H              21.764              -7.807              18.157              
H              23.96               -11.144             17.284              
H              20.254              -9.773              18.307              
N              25.556              -5.522              15.907              
C              26.716              -4.616              15.845              
C              27.096              -4.102              17.224              
O              26.266              -4.015              18.121              
C              26.512              -3.424              14.862              
C              25.447              -2.441              15.378              
C              26.164              -3.946              13.456              
C              25.376              -1.118              14.6                
H              24.586              -5.209              15.932              
H              27.485              -5.176              15.519              
H              27.378              -2.936              14.797              
H              24.555              -2.885              15.33               
H              25.65               -2.231              16.333              
H              26.11               -3.176              12.828              
H              26.875              -4.577              13.159              
H              25.287              -4.416              13.492              
H              25.161              -1.318              13.649              
H              24.665              -0.549              15.001              
H              26.258              -0.662              14.664              
N              28.375              -3.781              17.393              
C              28.848              -3.148              18.624              
C              29.523              -1.84               18.252              
O              30.464              -1.837              17.454              
C              29.823              -4.053              19.414              
C              29.147              -5.38               19.802              
C              30.357              -3.3                20.645              
C              30.103              -6.357              20.5                
H              28.995              -4.013              16.595              
H              28.035              -2.914              19.147              
H              30.593              -4.264              18.821              
H              28.391              -5.184              20.413              
H              28.806              -5.812              18.975              
H              31.027              -3.871              21.11               
H              30.784              -2.451              20.347              
H              29.598              -3.1                21.258              
H              30.446              -5.93               21.331              
H              29.604              -7.189              20.722              
H              30.857              -6.563              19.884              
N              29.021              -0.729              18.801              
C              29.572              0.591               18.474              
C              29.965              1.32                19.754              
O              29.426              1.023               20.814              
C              28.546              1.453               17.684              
C              28.255              0.821               16.318              
C              27.23               1.656               18.496              
H              28.237              -0.877              19.454              
H              30.4                0.455               17.926              
H              28.967              2.335               17.512              
H              27.344              1.096               16.016              
H              28.937              1.134               15.659              
H              28.297              -0.173              16.4                
H              26.721              2.403               18.082              
H              26.707              0.812               18.458              
H              27.474              1.875               19.434              
N              30.941              2.227               19.659              
C              31.301              3.097               20.791              
C              30.548              4.407               20.624              
O              30.497              4.952               19.519              
C              32.796              3.373               20.812              
H              31.414              2.266               18.739              
H              31.009              2.659               21.633              
H              33.041              3.948               20.032              
H              33.038              3.844               21.66               
H              33.297              2.509               20.758              
N              29.968              4.91                21.719              
H              30.119              4.359               22.584              
H              42.9071             -1.50319            -2.90872            
H              29.4212             5.7718              21.6926             
