192
1.xyz
C              22.035              -2.744              2.512               
O              21.415              -2.295              1.555               
N              23.228              -3.323              2.396               
C              23.951              -3.279              1.132               
C              23.382              -4.263              0.104               
O              24.122              -5.087              -0.427              
C              25.386              -3.661              1.511               
C              25.366              -4.12               2.924               
C              23.964              -4.044              3.446               
H              23.959              -2.34               0.753               
H              25.729              -4.393              0.896               
H              26.004              -2.864              1.396               
H              25.723              -5.076              2.991               
H              25.992              -3.545              3.492               
H              23.572              -4.958              3.584               
H              23.92               -3.54               4.315               
N              22.088              -4.158              -0.187              
C              21.499              -4.869              -1.326              
C              20.376              -4.014              -1.912              
O              19.891              -3.14               -1.198              
C              20.975              -6.25               -0.942              
O              19.967              -6.162              0.045               
H              21.544              -3.545              0.446               
H              22.203              -4.973              -2.024              
H              20.597              -6.688              -1.754              
H              21.732              -6.793              -0.585              
H              20.374              -5.886              0.916               
N              19.951              -4.222              -3.155              
C              18.808              -3.483              -3.704              
C              18.064              -4.314              -4.75               
O              18.537              -5.37               -5.16               
C              19.223              -2.157              -4.348              
O              19.918              -2.398              -5.574              
H              20.481              -4.931              -3.689              
H              18.17               -3.293              -2.949              
H              18.411              -1.623              -4.541              
H              19.827              -1.673              -3.729              
H              20.374              -1.559              -5.861              
N              16.907              -3.829              -5.199              
C              16.195              -4.541              -6.259              
C              17.085              -4.754              -7.473              
O              16.893              -5.722              -8.206              
C              14.925              -3.775              -6.676              
C              15.233              -2.45               -7.316              
C              15.338              -1.25               -6.665              
C              15.474              -2.165              -8.702              
N              15.631              -0.247              -7.567              
C              15.719              -0.784              -8.824              
C              15.508              -2.956              -9.855              
C              15.99               -0.173              -10.05              
C              15.777              -2.351              -11.067             
C              16.018              -0.972              -11.172             
H              16.582              -2.966              -4.761              
H              15.944              -5.448              -5.901              
H              14.43               -4.316              -7.337              
H              14.382              -3.597              -5.871              
H              15.221              -1.116              -5.685              
H              15.758              0.717               -7.337              
H              15.343              -3.939              -9.807              
H              16.156              0.816               -10.098             
H              15.8                -2.914              -11.895             
H              16.209              -0.578              -12.062             
N              18.039              -3.847              -7.722              
C              18.817              -3.95               -8.955              
C              20.162              -4.635              -8.773              
O              20.862              -4.874              -9.769              
C              19.022              -2.571              -9.586              
C              19.705              -1.535              -8.719              
C              19.821              -0.194              -9.429              
N              20.289              -0.319              -10.798             
C              21.537              -0.459              -11.209             
N              22.545              -0.499              -10.342             
N              21.803              -0.562              -12.507             
H              18.162              -3.124              -7.014              
H              18.274              -4.479              -9.635              
H              19.571              -2.691              -10.42              
H              18.12               -2.213              -9.847              
H              19.178              -1.397              -7.882              
H              20.627              -1.843              -8.491              
H              18.917              0.235               -9.424              
H              20.461              0.373               -8.908              
H              19.567              -0.296              -11.534             
H              22.369              -0.443              -9.361              
H              23.486              -0.587              -10.676             
H              21.049              -0.552              -13.168             
H              22.744              -0.649              -12.822             
N              20.538              -4.962              -7.54               
C              21.878              -5.538              -7.324              
C              21.878              -6.378              -6.058              
O              21.566              -5.897              -4.964              
C              22.905              -4.406              -7.297              
C              24.356              -4.809              -7.289              
C              25.376              -3.707              -7.456              
O              26.501              -3.836              -7.957              
N              24.986              -2.509              -7.023              
H              19.861              -4.791              -6.798              
H              22.077              -6.14               -8.099              
H              22.745              -3.814              -8.106              
H              22.73               -3.838              -6.473              
H              24.554              -5.291              -6.411              
H              24.506              -5.494              -8.031              
H              25.624              -1.706              -7.087              
H              24.059              -2.399              -6.635              
N              22.213              -7.661              -6.166              
C              22.076              -8.544              -5                  
C              23.034              -8.149              -3.883              
O              22.654              -8.222              -2.716              
C              22.254              -10.006             -5.391              
C              23.534              -10.689             -4.973              
C              23.947              -11.786             -5.947              
O              25.129              -11.802             -6.37               
O              23.072              -12.619             -6.282              
H              22.555              -7.963              -7.079              
H              21.127              -8.504              -4.661              
H              21.495              -10.518             -4.988              
H              22.197              -10.058             -6.388              
H              24.255              -10.024             -4.96               
H              23.395              -11.113             -4.099              
N              24.238              -7.722              -4.223              
C              25.159              -7.19               -3.232              
C              25.709              -5.842              -3.68               
O              26.284              -5.721              -4.76               
C              26.329              -8.134              -2.966              
C              27.368              -7.492              -2.032              
C              28.063              -8.576              -1.219              
H              24.463              -7.798              -5.233              
H              24.649              -7.044              -2.377              
H              25.993              -8.955              -2.528              
H              26.78               -8.345              -3.822              
H              28.039              -7.025              -2.582              
H              26.902              -6.88               -1.418              
O              29.044              -9.163              -1.682              
N              27.546              -8.835              -0.029              
H              27.947              -9.557              0.568               
H              26.738              -8.302              0.287               
N              25.534              -4.809              -2.847              
C              26.126              -3.533              -3.26               
C              27.636              -3.583              -3.029              
O              28.119              -3.693              -1.898              
C              25.507              -2.338              -2.53               
C              23.979              -2.212              -2.622              
C              26.161              -1.043              -3.003              
C              23.497              -2.026              -4.045              
H              25.018              -4.974              -2.009              
H              25.99               -3.468              -4.246              
H              25.746              -2.416              -1.544              
H              23.573              -3.036              -2.245              
H              23.7                -1.426              -2.082              
H              25.856              -0.288              -2.426              
H              27.153              -1.131              -2.941              
H              25.9                -0.866              -3.95               
H              23.775              -2.813              -4.594              
H              22.501              -1.95               -4.05               
H              23.899              -1.194              -4.424              
N              28.415              -3.508              -4.107              
C              29.861              -3.628              -3.942              
C              30.576              -2.308              -4.127              
O              31.785              -2.199              -3.874              
C              30.43               -4.657              -4.943              
O              30.137              -4.204              -6.273              
C              29.783              -6.023              -4.755              
H              27.941              -3.369              -4.997              
H              30.045              -3.965              -3.003              
H              31.438              -4.695              -4.834              
H              28.791              -5.918              -4.659              
H              29.977              -6.602              -5.55               
H              30.149              -6.461              -3.931              
H              29.146              -4.225              -6.438              
N              29.882              -1.254              -4.569              
C              30.636              -0.031              -4.838              
C              29.843              0.959               -5.69               
C              28.649              1.592               -4.986              
C              28.016              2.649               -5.905              
N              27.236              2.008               -6.964              
C              26.015              1.504               -6.874              
N              25.29               1.506               -5.772              
N              25.463              0.951               -7.958              
H              28.893              -1.373              -4.686              
H              31.462              -0.265              -5.36               
H              30.458              1.693               -5.971              
H              29.504              0.477               -6.496              
H              27.968              0.904               -4.799              
H              28.948              2.045               -4.163              
H              27.424              3.215               -5.352              
H              28.749              3.178               -6.306              
H              27.691              1.941               -7.887              
H              25.68               1.936               -4.944              
H              24.388              1.101               -5.75               
H              25.96               0.939               -8.823              
H              24.549              0.55                -7.899              
H              30.9441             0.450141            -3.89583            
H              21.6686             -2.68746            3.51012             
