219
5.xyz
C              -5.252              -16.325             14.42               
O              -5.009              -17.456             14.836              
N              -4.717              -15.836             13.3                
C              -3.771              -16.607             12.496              
C              -2.435              -16.796             13.211              
O              -1.945              -17.919             13.343              
C              -3.528              -15.942             11.123              
C              -4.748              -16.132             10.22               
C              -2.299              -16.529             10.446              
C              -4.777              -15.193             9.024               
H              -5.027              -14.876             13.054              
H              -4.173              -17.525             12.391              
H              -3.403              -14.969             11.274              
H              -4.755              -17.073             9.89                
H              -5.57               -15.976             10.765              
H              -2.143              -16.065             9.575               
H              -1.502              -16.405             11.035              
H              -2.442              -17.504             10.281              
H              -3.964              -15.348             8.466               
H              -5.597              -15.375             8.485               
H              -4.789              -14.25              9.349               
N              -1.85               -15.698             13.68               
C              -0.517              -15.763             14.268              
C              -0.5                -16.513             15.6                
O              0.439               -17.257             15.891              
C              0.077               -14.362             14.461              
C              1.478               -14.433             15.02               
C              2.543               -14.819             14.215              
C              1.73                -14.169             16.362              
C              3.825               -14.914             14.723              
C              3.013               -14.262             16.882              
C              4.055               -14.634             16.057              
O              5.33                -14.734             16.556              
H              -2.401              -14.832             13.594              
H              0.09                -16.257             13.625              
H              0.111               -13.916             13.583              
H              -0.491              -13.87              15.1                
H              2.379               -15.033             13.249              
H              0.975               -13.907             16.961              
H              4.586               -15.183             14.127              
H              3.18                -14.061             17.847              
H              5.949               -15.017             15.825              
N              -1.547              -16.309             16.392              
C              -1.625              -16.855             17.741              
C              -2.481              -18.122             17.775              
O              -2.965              -18.575             16.739              
C              -2.137              -15.762             18.683              
C              -1.248              -14.525             18.654              
H              -2.303              -15.728             15.967              
H              -0.693              -17.125             18.009              
H              -3.05               -15.501             18.397              
H              -2.147              -16.122             19.608              
O              -0.175              -14.509             19.254              
N              -1.677              -13.494             17.928              
H              -2.552              -13.565             17.443              
H              -1.135              -12.661             17.868              
N              -2.628              -18.718             18.955              
C              -3.351              -19.984             19.1                
C              -4.66               -19.777             19.856              
O              -4.762              -18.856             20.67               
C              -2.485              -21.002             19.838              
C              -1.204              -21.383             19.104              
C              -0.321              -22.277             19.954              
C              0.962               -22.656             19.233              
N              1.768               -23.636             20.01               
H              -2.193              -18.217             19.754              
H              -3.56               -20.344             18.184              
H              -2.233              -20.616             20.724              
H              -3.025              -21.832             19.975              
H              -1.445              -21.868             18.263              
H              -0.701              -20.55              18.875              
H              -0.082              -21.793             20.792              
H              -0.82               -23.112             20.173              
H              0.728               -23.055             18.341              
H              1.508               -21.827             19.082              
H              2.533               -23.164             20.447              
H              1.192               -24.059             20.709              
H              2.118               -24.341             19.393              
N              -5.67               -20.631             19.597              
C              -6.916              -20.51              20.343              
C              -6.671              -20.535             21.847              
O              -5.874              -21.339             22.332              
C              -7.707              -21.747             19.905              
C              -7.191              -22.054             18.556              
C              -5.73               -21.736             18.624              
H              -7.414              -19.672             20.078              
H              -7.546              -22.507             20.542              
H              -8.69               -21.545             19.886              
H              -7.336              -23.023             18.328              
H              -7.648              -21.49              17.86               
H              -5.196              -22.517             18.95               
H              -5.374              -21.439             17.736              
N              -7.328              -19.634             22.569              
C              -7.191              -19.569             24.016              
C              -6.031              -18.722             24.522              
O              -5.927              -18.493             25.724              
H              -7.935              -18.994             22.02               
H              -8.063              -19.21              24.419              
H              -7.092              -20.521             24.386              
N              -5.154              -18.263             23.626              
C              -4.067              -17.355             24.018              
C              -4.656              -16.066             24.569              
O              -5.741              -15.657             24.166              
C              -3.161              -17.004             22.833              
C              -2.147              -18.087             22.508              
O              -2.074              -19.115             23.218              
O              -1.406              -17.896             21.52               
H              -5.301              -18.593             22.658              
H              -3.57               -17.799             24.765              
H              -3.741              -16.86              22.036              
H              -2.673              -16.166             23.058              
N              -3.933              -15.427             25.484              
C              -4.39               -14.168             26.078              
C              -4.794              -13.135             25.024              
O              -5.869              -12.548             25.11               
C              -3.305              -13.562             26.975              
C              -3.031              -14.39              28.215              
O              -3.978              -14.993             28.771              
O              -1.861              -14.421             28.644              
H              -3.039              -15.885             25.736              
H              -5.219              -14.378             26.618              
H              -2.468              -13.497             26.441              
H              -3.608              -12.657             27.254              
N              -3.939              -12.914             24.028              
C              -4.213              -11.894             23.011              
C              -5.426              -12.263             22.151              
O              -6.166              -11.383             21.695              
C              -2.962              -11.614             22.126              
C              -3.098              -10.282             21.375              
C              -2.694              -12.767             21.162              
C              -3.104              -9.061              22.285              
H              -3.093              -13.504             24.033              
H              -4.461              -11.058             23.512              
H              -2.174              -11.55              22.731              
H              -2.339              -10.202             20.734              
H              -3.953              -10.299             20.861              
H              -1.846              -12.593             20.665              
H              -2.611              -13.617             21.678              
H              -3.451              -12.841             20.516              
H              -2.248              -9.031              22.796              
H              -3.195              -8.239              21.728              
H              -3.873              -9.128              22.917              
N              -5.632              -13.561             21.94               
C              -6.78               -14.042             21.177              
C              -8.082              -13.786             21.934              
O              -9.061              -13.332             21.346              
C              -6.625              -15.535             20.818              
C              -7.907              -16.092             20.202              
C              -5.449              -15.707             19.866              
H              -4.918              -14.189             22.358              
H              -6.82               -13.529             20.312              
H              -6.469              -16.036             21.666              
H              -8.691              -15.795             20.745              
H              -8                  -15.753             19.267              
H              -7.864              -17.09              20.193              
H              -5.471              -14.98              19.18               
H              -4.595              -15.655             20.384              
H              -5.517              -16.597             19.416              
N              -8.088              -14.064             23.233              
C              -9.262              -13.785             24.065              
C              -9.558              -12.287             24.09               
O              -10.716             -11.872             24.093              
C              -9.06               -14.303             25.488              
C              -8.981              -15.826             25.602              
C              -8.577              -16.231             27.012              
C              -10.305             -16.469             25.213              
H              -7.216              -14.483             23.599              
H              -10.053             -14.259             23.669              
H              -8.207              -13.935             25.83               
H              -9.826              -14.003             26.035              
H              -8.303              -16.166             24.952              
H              -9.254              -15.89              27.665              
H              -8.529              -17.228             27.073              
H              -7.681              -15.841             27.228              
H              -10.528             -16.229             24.268              
H              -10.23              -17.463             25.295              
H              -11.028             -16.138             25.82               
N              -8.505              -11.479             24.111              
C              -8.656              -10.03              24.079              
C              -9.256              -9.587              22.747              
O              -10.207             -8.805              22.72               
C              -7.312              -9.356              24.328              
C              -6.839              -9.536              25.759              
S              -5.149              -8.99               26.043              
C              -5.37               -7.208              26.001              
H              -7.586              -11.959             24.151              
H              -9.292              -9.763              24.809              
H              -6.627              -9.751              23.714              
H              -7.396              -8.376              24.141              
H              -7.494              -9.036              26.381              
H              -6.949              -10.531             26.014              
H              -5.858              -6.913              26.823              
H              -4.475              -6.762              25.966              
H              -5.9                -6.957              25.191              
N              -8.717              -10.11              21.648              
C              -9.261              -9.819              20.318              
C              -10.722             -10.245             20.192              
O              -11.529             -9.53               19.596              
C              -8.424              -10.489             19.236              
H              -7.901              -10.725             21.809              
H              -9.201              -8.823              20.157              
H              -7.636              -10.94              19.655              
H              -8.98               -11.168             18.757              
H              -8.106              -9.8                18.585              
N              -11.066             -11.399             20.758              
C              -12.449             -11.889             20.696              
C              -12.566             -13.283             21.306              
C              -12.025             -14.381             20.413              
C              -11.973             -15.735             21.09               
O              -12.329             -15.84              22.284              
O              -11.568             -16.701             20.417              
H              -10.302             -11.906             21.23               
H              -12.719             -12.005             19.728              
H              -12.045             -13.29              22.139              
H              -13.519             -13.464             21.46               
H              -12.617             -14.463             19.629              
H              -11.104             -14.145             20.152              
H              -5.90881            -15.6822            14.9672             
H              -13.1528            -11.2118            21.1922             
