275
6.xyz
C              19.288              3.862               18.662              
C              20.138              2.871               19.454              
O              19.883              2.626               20.636              
C              18.013              3.195               18.177              
H              19.009              4.611               19.279              
H              18.042              3.099               17.182              
H              17.927              2.29                18.595              
H              17.223              3.753               18.433              
N              21.159              2.311               18.812              
C              21.986              1.288               19.45               
C              22.687              1.867               20.685              
O              23.006              1.134               21.625              
C              22.982              0.665               18.424              
C              23.877              -0.379              19.074              
C              22.194              -0.02               17.306              
H              21.313              2.653               17.848              
H              21.386              0.546               19.758              
H              23.572              1.402               18.102              
H              23.566              -0.551              20.009              
H              23.836              -1.229              18.548              
H              24.82               -0.046              19.094              
H              22.593              0.23                16.425              
H              22.242              -1.009              17.432              
H              21.243              0.282               17.345              
N              22.861              3.187               20.719              
C              23.556              3.826               21.836              
C              22.749              3.766               23.12               
O              23.274              4.092               24.185              
C              23.901              5.295               21.537              
S              25.109              5.526               20.209              
H              22.474              3.703               19.913              
H              24.426              3.333               21.986              
H              23.057              5.762               21.281              
H              24.27               5.699               22.372              
N              21.487              3.353               23.028              
C              20.641              3.21                24.213              
C              20.286              1.744               24.455              
O              19.426              1.422               25.288              
C              19.359              4.02                24.028              
O              18.486              3.332               23.146              
H              21.163              3.146               22.066              
H              21.162              3.537               25.009              
H              18.915              4.125               24.906              
H              19.588              4.899               23.635              
H              18.97               3.12                22.298              
N              20.959              0.854               23.732              
C              20.693              -0.585              23.816              
C              20.581              -1.18               22.409              
C              19.425              -0.498              21.637              
C              19.126              -1.047              20.24               
H              21.685              1.261               23.106              
H              19.765              -0.709              24.193              
H              21.412              -1.01               21.915              
H              20.373              -2.138              22.475              
H              18.587              -0.579              22.197              
H              19.645              0.486               21.553              
O              19.617              -2.109              19.829              
N              18.301              -0.309              19.499              
H              18.064              -0.601              18.552              
H              17.915              0.542               19.891              
C              29                  6.097               21.537              
C              29.628              7.161               22.433              
O              30.191              6.855               23.477              
C              27.562              5.825               21.982              
S              26.728              4.578               20.979              
H              29.003              6.443               20.593              
H              27.584              5.508               22.924              
H              27.051              6.676               21.914              
N              29.503              8.419               22.022              
C              30.075              9.545               22.749              
C              29.257              10.79               22.446              
O              28.558              10.852              21.429              
C              31.516              9.805               22.305              
C              32.548              8.803               22.819              
C              33.974              9.222               22.518              
O              34.179              10.054              21.609              
O              34.897              8.691               23.171              
H              28.96               8.53                21.135              
H              30.055              9.36                23.73               
H              31.537              9.77                21.317              
H              31.778              10.697              22.639              
H              32.454              8.742               23.795              
H              32.389              7.943               22.372              
N              29.378              11.784              23.32               
C              28.842              13.109              23.059              
C              27.448              13.416              23.574              
O              26.78               12.58               24.205              
H              29.884              11.531              24.195              
H              29.499              13.814              23.441              
H              28.863              13.28               22.037              
N              27.023              14.658              23.319              
C              25.648              15.077              23.541              
C              25.173              15.828              22.298              
O              25.611              16.956              22.064              
C              25.529              15.964              24.775              
C              24.082              16.21               25.174              
H              27.764              15.294              22.949              
H              25.091              14.254              23.613              
H              25.993              15.518              25.534              
H              25.955              16.842              24.578              
O              23.15               15.672              24.568              
N              23.89               17.007              26.217              
H              24.673              17.413              26.69               
H              22.961              17.205              26.534              
N              24.29               15.203              21.494              
C              23.61               13.926              21.748              
C              24.55               12.718              21.718              
O              25.619              12.775              21.089              
C              22.606              13.832              20.602              
C              23.254              14.585              19.495              
C              23.963              15.731              20.156              
H              23.107              13.962              22.631              
H              22.45               12.876              20.345              
H              21.733              14.249              20.86               
H              23.905              13.999              19                  
H              22.565              14.919              18.842              
H              24.798              15.98               19.665              
H              23.372              16.536              20.232              
N              24.153              11.673              22.439              
C              24.919              10.429              22.556              
C              24.713              9.601               21.289              
O              23.644              8.998               21.081              
C              24.452              9.666               23.793              
C              25.455              8.688               24.377              
C              26.731              9.105               24.74               
C              25.111              7.354               24.586              
C              27.656              8.198               25.296              
C              26.018              6.452               25.141              
C              27.28               6.882               25.493              
O              28.178              5.996               26.059              
H              23.232              11.815              22.925              
H              25.887              10.661              22.623              
H              24.221              10.334              24.506              
H              23.625              9.15                23.552              
H              27.006              10.054              24.61               
H              24.199              7.037               24.335              
H              28.568              8.513               25.542              
H              25.75               5.499               25.281              
H              28.524              5.387               25.349              
N              25.742              9.571               20.441              
C              25.621              8.989               19.102              
C              26.814              8.094               18.761              
O              27.843              8.161               19.429              
C              25.476              10.086              18.01               
C              24.128              10.783              18.127              
C              26.622              11.095              18.092              
H              26.619              9.988               20.805              
H              24.79               8.417               19.084              
H              25.496              9.63                17.127              
H              24.265              11.727              18.426              
H              23.672              10.779              17.237              
H              23.56               10.302              18.794              
H              27.149              11.06               17.245              
H              26.243              12.01               18.218              
H              27.208              10.861              18.866              
N              26.67               7.239               17.733              
C              27.812              6.354               17.463              
C              29.009              7.109               16.892              
O              28.836              7.966               16.02               
C              27.263              5.374               16.426              
C              25.754              5.429               16.596              
C              25.463              6.852               16.971              
H              28.074              5.849               18.3                
H              27.517              5.652               15.498              
H              27.598              4.445               16.594              
H              25.306              5.178               15.738              
H              25.471              4.796               17.316              
H              25.36               7.432               16.167              
H              24.651              6.924               17.547              
N              30.213              6.784               17.366              
C              31.42               7.429               16.854              
C              32.47               6.42                16.398              
O              33.438              6.788               15.732              
C              32.036              8.421               17.852              
C              31.092              9.568               18.119              
C              32.411              7.717               19.173              
H              30.215              6.061               18.102              
H              31.159              7.989               16.052              
H              32.855              8.804               17.43               
H              31.607              10.363              18.446              
H              30.609              9.814               17.276              
H              30.422              9.302               18.815              
H              32.729              6.796               18.965              
H              33.134              8.238               19.619              
H              31.604              7.68                19.756              
N              32.295              5.15                16.757              
C              33.2                4.116               16.255              
C              32.446              2.817               16.047              
O              31.458              2.557               16.731              
C              34.376              3.87                17.215              
C              35.172              5.097               17.541              
H              31.506              4.97                17.387              
H              33.565              4.419               15.37               
H              34.017              3.487               18.075              
H              34.995              3.192               16.801              
N              35.922              5.774               16.602              
C              35.358              5.753               18.712              
C              36.512              6.81                17.173              
N              36.187              6.817               18.455              
H              36.004              5.519               15.638              
H              34.967              5.509               19.596              
H              37.1                7.471               16.718              
N              32.902              2.004               15.102              
C              32.313              0.683               14.921              
C              33.273              -0.302              15.555              
O              34.424              -0.396              15.126              
C              32.129              0.374               13.44               
C              31.322              -0.866              13.19               
C              29.958              -0.781              12.961              
C              31.928              -2.121              13.216              
C              29.205              -1.931              12.754              
C              31.189              -3.273              12.998              
C              29.823              -3.173              12.771              
H              33.676              2.374               14.533              
H              31.479              0.661               15.455              
H              31.656              1.135               13.026              
H              33.023              0.242               13.043              
H              29.509              0.106               12.942              
H              32.911              -2.188              13.394              
H              28.215              -1.854              12.594              
H              31.643              -4.174              13.007              
H              29.278              -4                  12.618              
N              32.828              -1.021              16.589              
C              33.757              -1.841              17.353              
C              33.829              -3.285              16.851              
O              34.925              -3.862              16.745              
C              33.401              -1.824              18.841              
C              34.604              -2.097              19.732              
O              35.651              -1.431              19.57               
O              34.509              -2.992              20.593              
H              31.824              -0.944              16.782              
H              34.681              -1.443              17.231              
H              33.04               -0.926              19.061              
H              32.72               -2.526              19.003              
N              32.672              -3.869              16.56               
C              32.61               -5.291              16.205              
C              31.238              -5.686              15.714              
O              30.267              -4.974              15.913              
C              32.967              -6.14               17.404              
H              31.843              -3.255              16.603              
H              33.285              -5.465              15.472              
H              32.327              -5.956              18.152              
H              32.917              -7.11               17.16               
H              33.897              -5.925              17.707              
N              31.155              -6.85               15.082              
C              29.86               -7.444              14.814              
C              29.897              -8.839              15.397              
O              30.936              -9.504              15.37               
C              29.536              -7.48               13.321              
O              30.452              -8.3                12.628              
H              32.055              -7.272              14.812              
H              29.169              -6.923              15.3                
H              28.617              -7.843              13.201              
H              29.589              -6.554              12.96               
H              30.919              -7.763              11.925              
N              28.772              -9.269              15.955              
C              28.71               -10.577             16.594              
C              27.457              -11.348             16.223              
O              26.45               -10.804             15.764              
C              28.798              -10.469             18.127              
C              30.155              -9.927              18.558              
C              27.674              -9.602              18.662              
O              27.44               -12.562             16.417              
H              27.973              -8.617              15.898              
H              29.512              -11.115             16.284              
H              28.721              -11.389             18.501              
H              30.08               -8.947              18.74               
H              30.454              -10.398             19.387              
H              30.822              -10.08              17.829              
H              27.36               -8.983              17.941              
H              26.916              -10.185             18.957              
H              28.007              -9.068              19.44               
H              19.8259             4.28054             17.8409             
H              29.5648             5.1966              21.5639             
H              21.3975             -1.10636            24.4939             
