361
0.xyz
N              34.65               21.626              9.959               
C              35.372              20.364              10.094              
C              34.409              19.203              10.34               
O              33.257              19.414              10.74               
C              36.411              20.456              11.214              
C              35.973              21.314              12.394              
C              37.053              21.365              13.473              
C              36.735              22.435              14.512              
N              37.375              22.152              15.832              
H              34.347              21.945              10.859              
H              35.879              20.185              9.242               
H              36.593              19.534              11.548              
H              37.246              20.849              10.833              
H              35.795              22.243              12.074              
H              35.142              20.928              12.789              
H              37.093              20.485              13.927              
H              37.921              21.584              13.048              
H              37.061              23.323              14.173              
H              35.739              22.483              14.634              
H              37.791              21.245              15.808              
H              38.076              22.84               16.011              
H              36.68               22.185              16.548              
H              35.247              22.32               9.552               
H              33.849              21.5                9.371               
N              34.88               17.985              10.077              
C              34.045              16.789              10.2                
C              33.99               16.325              11.651              
O              35.026              16.064              12.266              
C              34.584              15.653              9.317               
C              33.699              14.402              9.291               
C              34.288              13.284              8.443               
O              35.486              12.989              8.599               
O              33.542              12.689              7.64                
H              35.876              17.958              9.782               
H              33.116              16.992              9.877               
H              34.642              15.992              8.396               
H              35.46               15.387              9.673               
H              33.618              14.068              10.209              
H              32.834              14.648              8.9                 
N              32.778              16.23               12.194              
C              32.595              15.746              13.559              
C              32.785              14.239              13.592              
O              32.684              13.563              12.559              
C              31.191              16.049              14.105              
O              30.213              15.335              13.339              
C              30.887              17.546              14.075              
H              31.998              16.522              11.579              
H              33.291              16.168              14.143              
H              31.136              15.726              15.071              
H              29.924              17.69               13.842              
H              31.073              17.946              14.974              
H              31.463              17.993              13.389              
H              29.302              15.437              13.753              
N              33.025              13.709              14.788              
C              33.186              12.268              14.958              
C              31.921              11.539              14.516              
O              31.989              10.445              13.933              
C              33.523              11.938              16.396              
H              33.086              14.389              15.566              
H              33.951              11.957              14.386              
H              32.855              12.366              17.007              
H              33.503              10.946              16.529              
H              34.437              12.281              16.617              
N              30.771              12.135              14.82               
C              29.483              11.565              14.431              
C              29.366              11.502              12.909              
O              28.942              10.488              12.36               
C              28.322              12.37               15.046              
H              30.867              13.024              15.348              
H              29.418              10.631              14.796              
H              27.607              12.483              14.361              
H              27.964              11.874              15.833              
H              28.661              13.262              15.333              
N              29.774              12.578              12.234              
C              29.762              12.626              10.774              
C              30.731              11.614              10.168              
O              30.443              10.995              9.138               
C              30.096              14.05               10.293              
H              30.096              13.367              12.83               
H              28.83               12.411              10.45               
H              31.008              14.295              10.611              
H              30.067              14.072              9.297               
H              29.425              14.685              10.666              
N              31.877              11.444              10.812              
C              32.886              10.52               10.343              
C              32.36               9.098               10.449              
O              32.572              8.296               9.554               
C              34.167              10.683              11.151              
C              35.288              9.813               10.643              
C              36.546              10.036              11.431              
C              37.703              9.407               10.697              
N              38.924              9.371               11.553              
H              31.982              12.026              11.67               
H              33.092              10.715              9.381               
H              34.452              11.634              11.095              
H              33.973              10.435              12.095              
H              35.017              8.851               10.721              
H              35.46               10.028              9.68                
H              36.712              11.007              11.515              
H              36.46               9.606               12.316              
H              37.461              8.471               10.436              
H              37.901              9.938               9.871               
H              39.605              8.775               11.131              
H              39.294              10.295              11.639              
H              38.683              9.019               12.457              
N              31.659              8.786               11.539              
C              31.037              7.469               11.657              
C              30.048              7.249               10.51               
O              30.011              6.174               9.904               
C              30.334              7.302               13.015              
C              29.607              5.99                13.155              
C              28.293              5.852               12.709              
C              30.245              4.881               13.716              
C              27.623              4.636               12.812              
C              29.583              3.659               13.835              
C              28.269              3.532               13.375              
H              31.599              9.52                12.254              
H              31.765              6.789               11.544              
H              31.024              7.347               13.717              
H              29.674              8.029               13.102              
H              27.823              6.634               12.308              
H              31.188              4.965               14.035              
H              26.678              4.557               12.483              
H              30.055              2.871               14.254              
H              27.793              2.661               13.446              
N              29.245              8.261               10.203              
C              28.289              8.115               9.109               
C              28.987              7.872               7.775               
O              28.551              7.016               6.999               
C              27.35               9.321               9.017               
C              26.469              9.464               10.252              
C              25.365              10.475              10.063              
O              24.896              10.65               8.913               
O              24.957              11.092              11.066              
H              29.35               9.106               10.77               
H              27.665              7.345               9.306               
H              27.901              10.125              8.951               
H              26.764              9.187               8.248               
H              26.053              8.592               10.432              
H              27.033              9.769               10.997              
N              30.068              8.602               7.523               
C              30.81               8.44                6.266               
C              31.479              7.065               6.169               
O              31.475              6.427               5.114               
C              31.858              9.539               6.117               
C              32.779              9.343               4.909               
C              33.712              10.531              4.726               
N              34.538              10.811              5.897               
C              35.685              10.203              6.183               
N              36.165              9.242               5.392               
N              36.353              10.549              7.274               
H              30.334              9.271               8.261               
H              30.165              8.537               5.496               
H              31.391              10.408              6.005               
H              32.425              9.548               6.931               
H              33.332              8.528               5.047               
H              32.226              9.251               4.087               
H              34.307              10.339              3.942               
H              33.149              11.336              4.52                
H              34.213              11.522              6.54                
H              35.677              8.981               4.563               
H              37.022              8.782               5.634               
H              36.004              11.278              7.867               
H              37.208              10.085              7.508               
N              32.046              6.601               7.273               
C              32.771              5.334               7.262               
C              31.881              4.121               7.372               
O              32.25               3.045               6.918               
C              33.793              5.307               8.397               
C              34.822              6.414               8.272               
C              35.988              6.243               9.205               
O              37.132              6.535               8.853               
N              35.708              5.76                10.412              
H              31.935              7.192               8.112               
H              33.274              5.277               6.377               
H              33.315              5.42                9.262               
H              34.27               4.433               8.379               
H              35.162              6.428               7.328               
H              34.374              7.29                8.47                
H              36.448              5.602               11.098              
H              34.74               5.549               10.646              
N              30.713              4.274               7.983               
C              29.972              3.082               8.39                
C              28.512              2.993               8.012               
O              27.912              1.944               8.193               
C              30.098              2.869               9.903               
C              31.504              2.664               10.348              
H              30.4                5.231               8.133               
H              30.459              2.261               7.985               
H              29.726              3.673               10.375              
H              29.559              2.063               10.161              
N              32.268              1.605               9.903               
C              32.29               3.388               11.167              
C              33.468              1.688               10.445              
N              33.516              2.763               11.204              
H              31.96               0.896               9.274               
H              32.039              4.218               11.657              
H              34.216              1.041               10.304              
N              27.921              4.077               7.534               
C              26.507              4.016               7.175               
C              26.312              3.888               5.668               
O              26.866              4.669               4.897               
C              25.757              5.244               7.685               
C              25.641              5.327               9.211               
S              24.712              3.972               9.939               
C              23.157              4.058               9.056               
H              28.505              4.91                7.444               
H              26.108              3.198               7.611               
H              26.227              6.077               7.362               
H              24.823              5.245               7.301               
H              26.594              5.372               9.599               
H              25.217              6.235               9.448               
H              22.517              4.641               9.558               
H              23.309              4.442               8.144               
H              22.769              3.139               8.968               
N              25.53               2.896               5.261               
C              25.051              2.835               3.88                
C              23.609              2.354               3.861               
O              23.325              1.211               3.493               
C              25.914              1.918               3.017               
C              25.49               1.946               1.555               
O              24.805              2.918               1.171               
O              25.831              1.008               0.804               
H              25.296              2.193               5.98                
H              25.056              3.771               3.524               
H              26.853              2.226               3.08                
H              25.82               0.993               3.356               
N              22.69               3.231               4.248               
C              21.285              2.855               4.323               
C              20.699              2.581               2.933               
O              19.751              1.808               2.8                 
C              20.488              3.966               5.01                
O              21.024              4.295               6.277               
H              23.048              4.171               4.483               
H              21.214              2.002               4.857               
H              20.505              4.778               4.429               
H              19.545              3.657               5.126               
H              20.874              3.537               6.911               
N              21.292              3.2                 1.909               
C              20.769              3.187               0.531               
C              20.521              1.807               -0.093              
O              19.62               1.654               -0.927              
C              21.683              3.998               -0.395              
O              21.679              5.367               -0.051              
H              22.175              3.705               2.169               
H              19.873              3.688               0.538               
H              22.611              3.643               -0.317              
H              21.358              3.895               -1.332              
H              22.113              5.49                0.841               
N              21.331              0.821               0.28                
C              21.131              -0.544              -0.201              
C              20.762              -1.467              0.961               
O              21.133              -1.203              2.105               
C              22.375              -1.075              -0.947              
O              22.09               -2.366              -1.507              
C              23.575              -1.169              -0.002              
H              22.093              1.097               0.922               
H              20.371              -0.544              -0.857              
H              22.595              -0.438              -1.713              
H              23.81               -0.256              0.334               
H              23.346              -1.759              0.774               
H              24.359              -1.554              -0.492              
H              22.898              -2.723              -1.987              
N              20.019              -2.533              0.672               
C              19.532              -3.418              1.726               
C              20.622              -4.382              2.172               
O              20.606              -4.869              3.31                
C              18.306              -4.204              1.249               
O              17.245              -3.332              0.881               
H              19.824              -2.674              -0.333              
H              19.277              -2.85               2.517               
H              18.563              -4.751              0.458               
H              17.996              -4.794              1.989               
H              17.49               -2.394              1.118               
N              21.569              -4.624              1.265               
C              22.599              -5.643              1.425               
C              23.307              -5.824              0.105               
O              24.522              -5.996              0.066               
C              21.965              -6.976              1.819               
H              21.507              -4.008              0.414               
H              23.258              -5.33               2.109               
H              20.976              -6.862              1.899               
H              22.167              -7.659              1.119               
H              22.339              -7.275              2.696               
N              22.521              -5.744              -0.974              
C              22.811              -6.374              -2.272              
C              24.233              -6.244              -2.831              
O              24.505              -6.716              -3.937              
C              21.78               -5.93               -3.319              
H              21.646              -5.173              -0.814              
H              22.591              -7.382              -2.191              
H              21.412              -6.735              -3.779              
H              21.043              -5.436              -2.864              
H              22.225              -5.335              -3.985              
N              25.107              -5.606              -2.053              
C              26.531              -5.448              -2.324              
C              27.094              -6.452              -3.315              
O              27.278              -7.625              -2.973              
C              27.286              -5.577              -1.004              
O              26.648              -4.776              -0.026              
H              24.657              -5.202              -1.174              
H              26.672              -4.515              -2.712              
H              27.267              -6.521              -0.714              
H              28.212              -5.257              -1.131              
H              25.739              -5.144              0.166               
N              27.348              -5.996              -4.542              
C              28.027              -6.823              -5.54               
C              29.395              -7.222              -5.012              
O              29.817              -6.757              -3.957              
C              28.191              -6.074              -6.862              
O              29.024              -4.935              -6.729              
H              27.03               -5.027              -4.722              
H              27.489              -7.655              -5.67               
H              28.595              -6.693              -7.535              
H              27.289              -5.78               -7.178              
H              29.68               -4.913              -7.482              
N              30.091              -8.088              -5.738              
C              31.467              -8.406              -5.385              
C              32.342              -7.151              -5.49               
O              33.418              -7.084              -4.886              
C              31.998              -9.53               -6.277              
O              31.61               -9.32               -7.623              
H              29.591              -8.498              -6.54               
H              31.486              -8.711              -4.43               
H              32.99               -9.541              -6.222              
H              31.622              -10.394             -5.962              
H              31.672              -8.347              -7.84               
N              31.867              -6.159              -6.243              
C              32.579              -4.895              -6.433              
C              32.348              -3.9                -5.31               
O              33                  -2.865              -5.288              
C              32.107              -4.178              -7.707              
C              32.358              -4.965              -8.974              
O              31.508              -5.037              -9.864              
N              33.531              -5.591              -9.048              
H              30.942              -6.362              -6.686              
H              33.571              -5.114              -6.439              
H              31.125              -4.009              -7.623              
H              32.591              -3.305              -7.769              
H              34.182              -5.53               -8.293              
H              33.761              -6.125              -9.863              
N              31.395              -4.185              -4.425              
C              30.863              -3.167              -3.514              
C              29.776              -3.773              -2.621              
C              29.25               -2.859              -1.528              
C              28.168              -2.021              -1.761              
C              29.811              -2.872              -0.247              
C              27.671              -1.19               -0.761              
C              29.321              -2.044              0.756               
C              28.248              -1.212              0.493               
O              27.756              -0.382              1.477               
H              31.068              -5.168              -4.435              
H              30.416              -2.45               -4.073              
H              29.004              -4.036              -3.203              
H              30.151              -4.593              -2.183              
H              27.734              -2.01               -2.664              
H              30.572              -3.485              -0.053              
H              26.899              -0.582              -0.954              
H              29.743              -2.05               1.662               
H              26.974              0.123               1.117               
H              31.6422             -2.69232            -2.91078            
