160
4.xyz
C              -23.214             0.804               -10.143             
O              -24.358             0.607               -10.693             
N              -22.147             0.035               -10.303             
C              -22.16              -1.174              -11.145             
C              -23.182             -2.239              -10.766             
O              -23.656             -3.025              -11.631             
C              -20.768             -1.771              -11.261             
C              -20.633             -2.895              -12.319             
C              -19.18              -3.061              -12.814             
H              -21.298             0.351               -9.787              
H              -22.364             -0.873              -12.104             
H              -20.116             -1.051              -11.51              
H              -20.499             -2.163              -10.377             
H              -20.923             -3.75               -11.908             
H              -21.205             -2.666              -13.096             
O              -18.909             -3.2                -14.003             
N              -18.257             -2.984              -11.916             
H              -17.266             -3.097              -12.161             
H              -18.506             -2.806              -10.938             
N              -23.568             -2.278              -9.508              
C              -24.446             -3.322              -9.003              
C              -25.828             -2.823              -8.516              
O              -26.519             -3.524              -7.807              
C              -23.694             -4.036              -7.93               
C              -22.541             -4.793              -8.471              
H              -23.197             -1.508              -8.91               
H              -24.631             -3.964              -9.772              
H              -23.359             -3.364              -7.268              
H              -24.315             -4.673              -7.47               
O              -22.722             -5.786              -9.196              
N              -21.34              -4.35               -8.177              
H              -21.232             -3.532              -7.601              
H              -20.524             -4.82               -8.52               
N              -26.207             -1.572              -8.836              
C              -27.511             -1.071              -8.457              
C              -28.618             -2.017              -8.985              
O              -29.71              -2.141              -8.419              
C              -27.714             0.318               -9.062              
C              -27.019             1.516               -8.382              
C              -27.283             2.809               -9.157              
C              -27.449             1.698               -6.933              
H              -25.5               -1.03               -9.358              
H              -27.581             -1.05               -7.458              
H              -27.386             0.293               -10.011             
H              -28.697             0.514               -9.062              
H              -26.037             1.342               -8.352              
H              -28.267             2.98                -9.188              
H              -26.824             3.568               -8.698              
H              -26.929             2.715               -10.086             
H              -27.222             0.875               -6.411              
H              -26.972             2.484               -6.539              
H              -28.437             1.854               -6.894              
N              -28.296             -2.736              -10.05              
C              -29.279             -3.666              -10.651             
C              -29.656             -4.849              -9.763              
O              -30.634             -5.561              -10.056             
C              -28.768             -4.175              -12.002             
C              -27.512             -5.051              -11.875             
H              -27.346             -2.604              -10.415             
H              -30.127             -3.127              -10.808             
H              -29.483             -4.72               -12.429             
H              -28.543             -3.392              -12.573             
O              -27.169             -5.775              -12.817             
N              -26.819             -4.985              -10.741             
H              -27.15              -4.37               -10.014             
H              -26.001             -5.525              -10.613             
N              -28.893             -5.088              -8.693              
C              -29.176             -6.214              -7.796              
C              -29.296             -5.743              -6.35               
O              -29.461             -6.54               -5.445              
C              -28.16              -7.329              -7.906              
O              -26.838             -6.824              -7.686              
C              -28.197             -8.013              -9.268              
H              -28.11              -4.43               -8.557              
H              -30.053             -6.625              -8.07               
H              -28.348             -8.035              -7.185              
H              -29.08              -7.841              -9.709              
H              -27.463             -7.653              -9.848              
H              -28.072             -9.001              -9.154              
H              -26.833             -5.82               -7.741              
N              -29.243             -4.426              -6.134              
C              -29.411             -3.901              -4.818              
C              -30.773             -4.367              -4.24               
O              -31.815             -4.206              -4.906              
C              -29.318             -2.326              -4.836              
C              -29.497             -1.664              -3.442              
C              -30.77              -1.638              -2.8                
C              -28.421             -1.094              -2.773              
C              -30.948             -1.121              -1.539              
C              -28.589             -0.556              -1.492              
C              -29.874             -0.573              -0.877              
O              -30.051             -0.074              0.408               
H              -29.075             -3.858              -6.983              
H              -28.697             -4.266              -4.215              
H              -28.424             -2.081              -5.178              
H              -30.035             -1.989              -5.428              
H              -31.556             -2.016              -3.304              
H              -27.526             -1.066              -3.2                
H              -31.852             -1.143              -1.104              
H              -27.822             -0.16               -1.002              
H              -29.162             0.178               0.78                
N              -30.778             -4.873              -2.989              
C              -31.989             -5.256              -2.313              
C              -32.158             -4.613              -0.946              
O              -31.277             -4.702              -0.085              
C              -32.059             -6.767              -2.189              
O              -31.794             -7.358              -3.463              
H              -29.823             -4.955              -2.571              
H              -32.781             -4.967              -2.887              
H              -31.374             -7.076              -1.548              
H              -32.967             -7.031              -1.901              
H              -31.006             -6.907              -3.876              
N              -33.333             -3.983              -0.73               
C              -33.66              -3.342              0.563               
C              -33.759             -4.375              1.704               
O              -33.623             -4.037              2.875               
C              -34.962             -2.532              0.492               
C              -34.888             -1.317              -0.385              
C              -36.275             -0.732              -0.604              
C              -36.168             0.602               -1.362              
N              -37.564             1.089               -1.712              
H              -33.978             -3.988              -1.54               
H              -32.932             -2.685              0.789               
H              -35.679             -3.139              0.146               
H              -35.193             -2.247              1.424               
H              -34.315             -0.624              0.049               
H              -34.503             -1.565              -1.272              
H              -36.809             -1.356              -1.15               
H              -36.698             -0.558              0.27                
H              -35.733             1.271               -0.781              
H              -35.66              0.461               -2.197              
H              -37.585             1.321               -2.679              
H              -38.211             0.36                -1.516              
H              -37.767             1.89                -1.159              
N              -33.967             -5.636              1.352               
C              -34.006             -6.677              2.346               
C              -32.7               -6.857              3.113               
O              -32.68              -7.444              4.171               
C              -34.47              -7.997              1.729               
C              -33.483             -8.687              0.822               
C              -33.871             -10.128             0.567               
C              -33.253             -10.567             -0.763              
N              -33.913             -11.813             -1.252              
H              -34.093             -5.793              0.337               
H              -34.744             -6.466              3.022               
H              -34.703             -8.624              2.483               
H              -35.312             -7.812              1.204               
H              -33.446             -8.202              -0.056              
H              -32.574             -8.667              1.245               
H              -33.507             -10.696             1.281               
H              -34.848             -10.196             0.493               
H              -33.381             -9.841              -1.432              
H              -32.282             -10.74              -0.625              
H              -34.687             -12.031             -0.659              
H              -34.235             -11.67              -2.187              
H              -33.254             -12.564             -1.234              
N              -31.588             -6.398              2.521               
H              -31.73              -6.013              1.574               
H              -23.0674            1.63879             -9.50783            
H              -30.7019            -6.44102            2.99145             
