332
1.xyz
C              2.703               5.196               -11.771             
O              3.582               4.653               -11.116             
N              2.18                4.667               -12.872             
C              2.663               3.402               -13.402             
C              1.732               2.229               -13.171             
O              1.75                1.261               -13.933             
H              1.42                5.221               -13.306             
H              2.831               3.503               -14.406             
H              3.574               3.192               -12.987             
N              0.928               2.293               -12.116             
C              -0.005              1.201               -11.82              
C              -1.044              1.024               -12.925             
O              -1.441              1.985               -13.582             
C              -0.716              1.447               -10.488             
C              0.177               1.229               -9.27               
C              -0.505              1.612               -7.967              
O              -0.173              1.018               -6.924              
O              -1.378              2.501               -7.977              
H              1.012               3.145               -11.543             
H              0.511               0.341               -11.704             
H              -1.012              2.383               -10.474             
H              -1.463              0.815               -10.424             
H              0.399               0.274               -9.22               
H              0.973               1.796               -9.366              
N              -1.469              -0.22               -13.132             
C              -2.618              -0.503              -13.991             
C              -3.835              -0.817              -13.121             
O              -3.767              -1.692              -12.265             
C              -2.351              -1.691              -14.933             
C              -1.004              -1.532              -15.637             
C              -3.471              -1.819              -15.96              
C              -0.905              -0.249              -16.46              
H              -0.926              -0.955              -12.642             
H              -2.824              0.346               -14.474             
H              -2.315              -2.518              -14.38              
H              -0.283              -1.527              -14.952             
H              -0.872              -2.307              -16.247             
H              -3.306              -2.619              -16.534             
H              -4.344              -1.922              -15.488             
H              -3.495              -1                  -16.529             
H              -1.029              0.534               -15.856             
H              -0.007              -0.208              -16.89              
H              -1.616              -0.256              -17.158             
N              -4.93               -0.085              -13.326             
C              -6.199              -0.372              -12.668             
C              -7.019              -1.221              -13.619             
O              -7.147              -0.874              -14.793             
C              -6.954              0.929               -12.31              
C              -6.087              1.813               -11.408             
C              -8.297              0.61                -11.656             
C              -6.682              3.2                 -11.152             
H              -4.799              0.706               -13.995             
H              -5.985              -0.943              -11.884             
H              -7.126              1.423               -13.153             
H              -5.965              1.354               -10.533             
H              -5.197              1.929               -11.841             
H              -8.789              1.46                -11.478             
H              -8.835              0.035               -12.268             
H              -8.14               0.128               -10.796             
H              -7.568              3.094               -10.71              
H              -6.064              3.712               -10.561             
H              -6.789              3.671               -12.023             
N              -7.567              -2.337              -13.139             
C              -8.202              -3.286              -14.051             
C              -9.712              -3.445              -13.86              
O              -10.256             -3.091              -12.819             
C              -7.493              -4.646              -13.939             
C              -5.97               -4.467              -14.079             
C              -5.184              -5.744              -14.231             
N              -3.762              -5.462              -14.435             
C              -3.161              -5.381              -15.617             
N              -1.856              -5.116              -15.674             
N              -3.839              -5.593              -16.74              
H              -7.506              -2.463              -12.124             
H              -8.032              -2.976              -15.01              
H              -7.673              -5.02               -13.054             
H              -7.798              -5.218              -14.67              
H              -5.789              -3.881              -14.884             
H              -5.629              -3.977              -13.262             
H              -5.293              -6.283              -13.404             
H              -5.534              -6.238              -15.019             
H              -3.193              -5.318              -13.61              
H              -1.315              -4.997              -14.85              
H              -1.409              -5.036              -16.576             
H              -4.813              -5.836              -16.681             
H              -3.392              -5.514              -17.623             
N              -10.37              -3.967              -14.893             
C              -11.81              -4.212              -14.85              
C              -12.551             -2.938              -14.47              
O              -13.394             -2.928              -13.572             
C              -12.137             -5.347              -13.868             
C              -13.592             -5.801              -13.946             
H              -9.779              -4.182              -15.721             
H              -12.097             -4.454              -15.781             
H              -11.552             -6.125              -14.081             
H              -11.956             -5.024              -12.943             
O              -14.181             -6.191              -12.933             
N              -14.177             -5.74               -15.135             
H              -13.654             -5.411              -15.926             
H              -15.127             -6.018              -15.245             
N              -12.198             -1.855              -15.153             
C              -12.753             -0.54               -14.849             
C              -14.204             -0.392              -15.313             
O              -14.596             -0.839              -16.4               
C              -11.891             0.556               -15.474             
C              -12.499             1.93                -15.233             
C              -10.502             0.487               -14.88              
H              -11.505             -2.022              -15.909             
H              -12.737             -0.416              -13.844             
H              -11.88              0.414               -16.462             
H              -13.491             1.881               -15.349             
H              -12.287             2.231               -14.303             
H              -12.119             2.583               -15.888             
H              -10.365             -0.408              -14.452             
H              -9.822              0.617               -15.603             
H              -10.397             1.206               -14.191             
N              -15.005             0.222               -14.452             
C              -16.406             0.461               -14.764             
C              -16.809             1.894               -14.45              
O              -16.321             2.491               -13.512             
C              -17.3               -0.511              -13.992             
C              -16.998             -1.973              -14.262             
C              -17.831             -2.876              -13.373             
C              -17.493             -4.339              -13.611             
N              -17.742             -4.739              -15.018             
H              -14.557             0.508               -13.563             
H              -16.555             0.292               -15.749             
H              -17.177             -0.338              -13.017             
H              -18.248             -0.331              -14.249             
H              -17.205             -2.179              -15.218             
H              -16.03              -2.146              -14.085             
H              -17.642             -2.658              -12.422             
H              -18.793             -2.736              -13.578             
H              -16.525             -4.488              -13.39              
H              -18.055             -4.905              -13.001             
H              -17.059             -5.414              -15.299             
H              -18.656             -5.138              -15.095             
H              -17.679             -3.935              -15.61              
N              -17.703             2.439               -15.26              
C              -18.314             3.714               -14.926             
C              -19.566             3.393               -14.109             
O              -20.454             2.668               -14.571             
C              -18.65              4.518               -16.185             
C              -19.55              5.737               -15.959             
C              -18.905             6.733               -15.002             
C              -19.625             8.085               -15.032             
N              -21.066             8                   -14.634             
H              -17.918             1.901               -16.112             
H              -17.693             4.24                -14.362             
H              -17.792             4.838               -16.591             
H              -19.112             3.908               -16.832             
H              -19.71              6.187               -16.836             
H              -20.418             5.431               -15.573             
H              -18.955             6.372               -14.078             
H              -17.96              6.876               -15.271             
H              -19.149             8.717               -14.407             
H              -19.565             8.462               -15.965             
H              -21.125             7.826               -13.653             
H              -21.517             8.863               -14.852             
H              -21.5               7.255               -15.136             
N              -19.612             3.888               -12.876             
C              -20.778             3.695               -12.028             
C              -21.64              4.94                -12.159             
O              -21.515             5.674               -13.129             
C              -20.377             3.441               -10.575             
C              -19.431             2.246               -10.373             
C              -19.263             1.923               -8.891              
C              -19.92              1.031               -11.133             
H              -18.766             4.409               -12.582             
H              -21.294             2.915               -12.362             
H              -19.909             4.245               -10.239             
H              -21.197             3.258               -10.056             
H              -18.539             2.471               -10.767             
H              -20.153             1.697               -8.497              
H              -18.645             1.144               -8.789              
H              -18.881             2.717               -8.419              
H              -19.965             1.24                -12.112             
H              -19.29              0.265               -10.988             
H              -20.832             0.774               -10.809             
N              -22.501             5.197               -11.187             
C              -23.412             6.334               -11.317             
C              -22.673             7.672               -11.204             
O              -23.053             8.651               -11.835             
C              -24.53              6.25                -10.272             
C              -25.421             5.014               -10.431             
C              -26.7               5.087               -9.619              
H              -22.476             4.567               -10.382             
H              -23.831             6.294               -12.234             
H              -24.12              6.218               -9.363              
H              -25.11              7.059               -10.354             
H              -25.66              4.92                -11.399             
H              -24.9               4.21                -10.14              
O              -26.674             4.984               -8.394              
N              -27.827             5.261               -10.299             
H              -28.724             5.305               -9.824              
H              -27.779             5.351               -11.314             
N              -21.596             7.698               -10.429             
C              -20.901             8.941               -10.106             
C              -20.167             9.609               -11.276             
O              -19.474             8.948               -12.043             
C              -19.914             8.669               -8.978              
C              -19.422             9.895               -8.28               
C              -19.03              9.603               -6.85               
O              -18.967             8.404               -6.479              
O              -18.806             10.568              -6.096              
H              -21.292             6.767               -10.075             
H              -21.571             9.61                -9.712              
H              -20.374             8.099               -8.313              
H              -19.135             8.204               -9.371              
H              -18.621             10.225              -8.742              
H              -20.143             10.561              -8.256              
N              -20.299             10.929              -11.374             
C              -19.696             11.717              -12.451             
C              -18.224             12.037              -12.181             
O              -17.858             12.37               -11.055             
C              -20.484             13.026              -12.643             
C              -20.005             13.893              -13.794             
C              -20.925             15.073              -14.078             
O              -21.847             15.344              -13.27              
O              -20.736             15.725              -15.13              
H              -20.874             11.361              -10.612             
H              -19.773             11.21               -13.323             
H              -21.423             12.781              -12.82              
H              -20.393             13.549              -11.813             
H              -19.122             14.258              -13.561             
H              -19.975             13.342              -14.609             
N              -17.388             11.938              -13.211             
C              -15.979             12.302              -13.091             
C              -15.09              11.29               -12.389             
O              -13.874             11.499              -12.248             
H              -17.816             11.587              -14.089             
H              -15.603             12.481              -14.031             
H              -15.911             13.203              -12.6               
N              -15.697             10.195              -11.934             
C              -14.977             9.138               -11.235             
C              -15.201             7.801               -11.932             
O              -16.162             7.63                -12.686             
C              -15.419             9.08                -9.766              
C              -14.894             10.251              -9.001              
C              -15.292             11.551              -9.117              
C              -13.832             10.24               -8.043              
N              -14.556             12.354              -8.277              
C              -13.647             11.571              -7.607              
C              -13.033             9.231               -7.49               
C              -12.688             11.921              -6.654              
C              -12.076             9.581               -6.539              
C              -11.923             10.917              -6.127              
H              -16.723             10.162              -12.12              
H              -13.997             9.346               -11.288             
H              -16.4               9.113               -9.728              
H              -15.054             8.266               -9.356              
H              -16.015             11.878              -9.725              
H              -14.662             13.338              -8.17               
H              -13.141             8.281               -7.764              
H              -12.577             12.881              -6.378              
H              -11.498             8.875               -6.152              
H              -11.234             11.125              -5.43               
N              -14.285             6.87                -11.709             
C              -14.433             5.505               -12.217             
C              -14.197             4.516               -11.092             
O              -13.69              4.88                -10.033             
C              -13.449             5.25                -13.368             
C              -13.72              6.029               -14.66              
C              -12.478             6.047               -15.515             
C              -14.854             5.411               -15.426             
H              -13.466             7.184               -11.153             
H              -15.369             5.392               -12.554             
H              -12.541             5.503               -13.053             
H              -13.485             4.283               -13.59              
H              -13.982             6.962               -14.422             
H              -12.21              5.109               -15.747             
H              -12.653             6.556               -16.361             
H              -11.727             6.488               -15.017             
H              -15.69              5.417               -14.869             
H              -15.023             5.929               -16.27              
H              -14.631             4.462               -15.667             
N              -14.535             3.255               -11.333             
C              -14.331             2.207               -10.342             
C              -13.498             1.085               -10.941             
O              -13.661             0.757               -12.104             
C              -15.673             1.673               -9.852              
C              -15.577             0.966               -8.527              
C              -15.743             -0.534              -8.632              
O              -16.213             -1.03               -9.681              
O              -15.415             -1.221              -7.645              
H              -14.949             3.085               -12.27              
H              -13.86              2.585               -9.541              
H              -16.277             2.44                -9.744              
H              -15.999             1.029               -10.518             
H              -14.684             1.138               -8.143              
H              -16.295             1.301               -7.937              
N              -12.591             0.513               -10.154             
C              -11.753             -0.546              -10.697             
C              -10.982             -1.349              -9.676              
O              -11.02              -1.041              -8.482              
H              -12.541             0.863               -9.197              
H              -12.34              -1.182              -11.251             
H              -11.094             -0.135              -11.369             
N              -10.287             -2.378              -10.161             
C              -9.544              -3.305              -9.321              
C              -8.071              -2.894              -9.271              
O              -7.478              -2.577              -10.293             
C              -9.676              -4.743              -9.86               
C              -9.091              -5.845              -8.947              
C              -7.581              -5.965              -9.038              
O              -7.021              -5.726              -10.132             
O              -6.951              -6.284              -8.005              
H              -10.324             -2.46               -11.207             
H              -9.92               -3.302              -8.392              
H              -10.636             -4.936              -9.969              
H              -9.192              -4.789              -10.717             
H              -9.322              -5.616              -8.02               
H              -9.481              -6.703              -9.227              
N              -7.48               -2.914              -8.082              
C              -6.06               -2.595              -7.944              
C              -5.844              -1.084              -7.788              
C              -4.383              -0.642              -7.608              
C              -3.525              -1.083              -8.787              
C              -4.35               0.851               -7.448              
H              -8.091              -3.166              -7.289              
H              -5.583              -2.908              -8.768              
H              -6.188              -0.64               -8.606              
H              -6.344              -0.785              -6.987              
H              -4.025              -1.048              -6.765              
H              -3.88               -0.676              -9.629              
H              -2.582              -0.783              -8.644              
H              -3.55               -2.08               -8.863              
H              -4.886              1.123               -6.644              
H              -3.403              1.164               -7.329              
H              -4.738              1.293               -8.262              
H              2.30445             6.12851             -11.4597            
H              -5.65283            -3.11779            -7.08369            
