297
0.xyz
N              -7.386              64.439              13.953              
C              -7.077              63.016              13.607              
C              -5.642              62.889              13.079              
O              -4.874              63.855              13.113              
C              -8.1                62.483              12.595              
C              -8.42               60.992              12.667              
S              -10.176             60.517              12.627              
C              -10.558             60.243              14.359              
H              -6.943              64.666              14.815              
H              -7.152              62.48               14.448              
H              -8.971              62.999              12.711              
H              -7.765              62.689              11.655              
H              -7.9                60.516              11.895              
H              -7.962              60.607              13.524              
H              -11.42              59.741              14.436              
H              -9.824              59.712              14.783              
H              -10.644             61.124              14.826              
H              -7.043              65.03               13.229              
H              -8.372              64.544              14.04               
N              -5.261              61.692              12.643              
C              -3.906              61.461              12.153              
C              -3.775              61.762              10.66               
O              -4.729              61.604              9.907               
C              -3.477              60.008              12.423              
C              -3.362              59.701              13.903              
H              -5.991              60.959              12.681              
H              -3.299              62.108              12.637              
H              -4.158              59.404              12.022              
H              -2.591              59.862              11.995              
O              -2.854              60.51               14.666              
N              -3.843              58.528              14.315              
H              -4.249              57.902              13.645              
H              -3.799              58.277              15.276              
N              -2.591              62.21               10.226              
C              -2.389              62.24               8.793               
C              -2.112              60.833              8.274               
O              -1.801              59.945              9.059               
C              -1.121              63.077              8.65                
C              -0.343              62.746              9.887               
C              -1.372              62.596              10.965              
H              -3.18               62.641              8.32                
H              -0.613              62.817              7.83                
H              -1.338              64.051              8.616               
H              0.173               61.894              9.758               
H              0.301               63.485              10.102              
H              -1.121              61.881              11.619              
H              -1.521              63.456              11.457              
N              -2.178              60.638              6.949               
C              -1.591              59.411              6.425               
C              -0.113              59.309              6.81                
O              0.551               60.329              6.999               
C              -1.732              59.572              4.905               
C              -1.842              61.038              4.686               
C              -2.599              61.549              5.876               
H              -2.096              58.602              6.746               
H              -0.927              59.194              4.437               
H              -2.551              59.093              4.576               
H              -0.932              61.459              4.633               
H              -2.338              61.233              3.835               
H              -2.347              62.491              6.095               
H              -3.588              61.493              5.734               
N              0.413               58.084              6.925               
C              1.825               57.976              7.216               
C              2.684               58.524              6.083               
O              2.198               58.697              4.967               
C              2.035               56.463              7.349               
C              1                   55.869              6.464               
C              -0.193              56.774              6.615               
H              2.054               58.439              8.088               
H              2.958               56.209              7.049               
H              1.91                56.173              8.3                 
H              1.314               55.85               5.512               
H              0.777               54.935              6.754               
H              -0.723              56.826              5.77                
H              -0.787              56.477              7.364               
N              3.966               58.779              6.348               
C              4.78                59.28               5.254               
C              4.872               58.259              4.115               
O              4.691               57.066              4.341               
C              6.144               59.518              5.908               
C              5.854               59.643              7.369               
C              4.749               58.646              7.586               
H              4.425               60.159              4.909               
H              6.761               58.746              5.73                
H              6.566               60.357              5.553               
H              6.658               59.409              7.909               
H              5.551               60.566              7.589               
H              5.105               57.721              7.679               
H              4.195               58.881              8.38                
N              5.133               58.74               2.906               
C              5.283               57.887              1.741               
C              6.436               56.927              2.005               
O              7.467               57.318              2.563               
C              5.609               58.719              0.472               
C              4.675               59.896              0.153               
C              5.288               60.99               -0.756              
O              6.315               60.738              -1.455              
O              4.727               62.119              -0.789              
H              5.221               59.782              2.867               
H              4.447               57.369              1.586               
H              6.523               59.089              0.591               
H              5.58                58.099              -0.302              
H              3.882               59.543              -0.318              
H              4.427               60.335              1.002               
N              6.275               55.673              1.606               
C              7.366               54.703              1.718               
C              7.756               54.119              0.363               
O              8.646               53.277              0.29                
C              6.986               53.574              2.678               
O              5.69                53.091              2.325               
C              6.96                54.08               4.109               
H              5.345               55.445              1.222               
H              8.172               55.175              2.104               
H              7.651               52.81               2.571               
H              7.46                53.446              4.705               
H              7.39                54.985              4.16                
H              6.012               54.151              4.429               
H              4.99                53.787              2.519               
N              7.109               54.612              -0.697              
C              7.357               54.193              -2.08               
C              7.266               55.386              -3.049              
O              6.375               56.233              -2.907              
C              6.328               53.151              -2.496              
O              6.555               52.755              -3.819              
H              6.391               55.342              -0.45               
H              8.292               53.829              -2.134              
H              6.41                52.363              -1.895              
H              5.421               53.551              -2.421              
H              7.481               52.382              -3.91               
N              8.177               55.459              -4.023              
C              8.089               56.499              -5.053              
C              8.248               55.896              -6.423              
O              9.356               55.465              -6.772              
C              9.13                57.604              -4.867              
C              8.779               58.861              -5.653              
H              8.919               54.747              -3.988              
H              7.163               56.886              -4.996              
H              9.175               57.838              -3.903              
H              10.009              57.268              -5.186              
O              8.206               58.785              -6.744              
N              9.106               60.02               -5.098              
H              9.566               60.033              -4.207              
H              8.897               60.879              -5.563              
N              7.152               55.852              -7.203              
C              7.218               55.179              -8.509              
C              7.95                55.963              -9.596              
O              8.316               55.388              -10.612             
C              5.743               54.977              -8.885              
C              4.976               55.948              -8.068              
C              5.769               56.208              -6.826              
H              7.628               54.248              -8.404              
H              5.608               55.143              -9.872              
H              5.459               54.029              -8.689              
H              4.826               56.808              -8.585              
H              4.061               55.574              -7.838              
H              5.721               57.171              -6.55               
H              5.459               55.636              -6.061              
N              8.179               57.259              -9.365              
C              8.905               58.11               -10.31              
C              10.345              58.378              -9.875              
O              10.931              59.391              -10.265             
C              8.154               59.435              -10.483             
C              6.724               59.231              -10.962             
H              7.798               57.609              -8.46               
H              8.951               57.607              -11.187             
H              8.13                59.9                -9.605              
H              8.638               59.985              -11.155             
O              5.765               59.617              -10.292             
N              6.579               58.597              -12.114             
H              7.382               58.275              -12.618             
H              5.663               58.435              -12.488             
N              10.903              57.471              -9.074              
C              12.268              57.599              -8.559              
C              13.01               56.29               -8.842              
O              12.497              55.214              -8.53               
C              12.232              57.875              -7.05               
C              13.563              58.27               -6.427              
C              13.409              58.562              -4.939              
C              14.736              58.91               -4.274              
N              14.528              59.759              -3.066              
H              10.284              56.661              -8.845              
H              12.729              58.339              -9.039              
H              11.576              58.616              -6.886              
H              11.904              57.044              -6.591              
H              14.213              57.521              -6.542              
H              13.908              59.089              -6.882              
H              12.787              59.334              -4.826              
H              13.032              57.755              -4.489              
H              15.196              58.063              -4.006              
H              15.307              59.405              -4.93               
H              14.457              59.174              -2.259              
H              15.303              60.381              -2.962              
H              13.686              60.286              -3.174              
N              14.219              56.367              -9.434              
C              15.007              55.154              -9.69               
C              15.584              54.558              -8.404              
O              15.606              55.221              -7.366              
C              16.124              55.648              -10.624             
C              16.289              57.064              -10.265             
C              14.931              57.573              -9.894              
H              14.452              54.467              -10.182             
H              16.965              55.124              -10.464             
H              15.848              55.537              -11.582             
H              16.933              57.168              -9.489              
H              16.667              57.592              -11.043             
H              14.978              58.252              -9.158              
H              14.459              57.978              -10.682             
N              16.024              53.307              -8.476              
C              16.455              52.571              -7.294              
C              17.877              51.997              -7.46               
O              18.31               51.623              -8.56               
C              15.431              51.476              -6.965              
C              14.084              52.051              -6.537              
C              12.966              51.038              -6.567              
C              11.644              51.632              -6.073              
N              11.146              52.774              -6.911              
H              16.034              52.904              -9.436              
H              16.458              53.194              -6.499              
H              15.293              50.926              -7.776              
H              15.789              50.929              -6.221              
H              14.174              52.415              -5.6                
H              13.852              52.817              -7.15               
H              12.833              50.722              -7.503              
H              13.2                50.27               -5.977              
H              10.945              50.904              -6.066              
H              11.768              51.954              -5.125              
H              10.93               53.544              -6.315              
H              11.857              53.035              -7.56               
H              10.328              52.484              -7.402              
N              18.614              51.977              -6.357              
C              19.955              51.43               -6.34               
C              20.261              50.792              -4.996              
O              19.686              51.164              -3.967              
C              21.003              52.494              -6.671              
C              21.24               53.555              -5.607              
C              22.338              54.509              -6.038              
N              22.516              55.621              -5.099              
C              23.472              56.541              -5.203              
N              24.333              56.494              -6.21               
N              23.567              57.515              -4.307              
H              18.148              52.384              -5.518              
H              20.031              50.724              -7.056              
H              21.877              52.028              -6.842              
H              20.718              52.961              -7.513              
H              20.407              54.078              -5.469              
H              21.521              53.118              -4.761              
H              23.192              53.995              -6.1                
H              22.098              54.875              -6.935              
H              21.875              55.691              -4.328              
H              24.271              55.79               -6.912              
H              25.066              57.185              -6.269              
H              22.897              57.562              -3.56               
H              24.292              58.193              -4.373              
N              21.182              49.843              -5.045              
C              21.755              49.211              -3.876              
C              23.133              49.834              -3.635              
O              23.901              49.998              -4.584              
C              21.875              47.725              -4.181              
C              22.393              46.866              -3.075              
C              22.329              45.406              -3.484              
H              21.468              49.582              -6.029              
H              21.187              49.426              -3.088              
H              20.959              47.382              -4.452              
H              22.485              47.614              -4.986              
H              23.339              47.096              -2.889              
H              21.833              46.989              -2.267              
O              22.966              44.998              -4.458              
N              21.532              44.624              -2.774              
H              21.427              43.638              -2.998              
H              21.018              45.026              -1.989              
N              23.429              50.205              -2.386              
C              24.761              50.718              -2.008              
C              25.169              50.131              -0.675              
O              24.307              49.705              0.101               
C              24.836              52.266              -1.908              
O              24.133              52.746              -0.747              
C              24.264              52.939              -3.154              
H              22.65               50.104              -1.706              
H              25.415              50.425              -2.707              
H              25.819              52.539              -1.819              
H              25.002              53.378              -3.669              
H              23.819              52.254              -3.733              
H              23.592              53.631              -2.885              
H              23.143              52.744              -0.916              
N              26.478              50.105              -0.431              
C              27.036              49.637              0.823               
C              28.566              49.763              0.787               
C              29.185              49.081              -0.431              
H              27.066              50.453              -1.226              
H              26.747              48.683              0.947               
H              28.802              50.729              0.76                
H              28.936              49.339              1.607               
O              28.538              48.283              -1.1                
N              30.446              49.395              -0.72               
H              30.935              50.049              -0.137              
H              30.899              48.985              -1.505              
H              26.6188             50.2058             1.66966             
