202
3.xyz
C              -19.846             -4.269              8.149               
O              -19.991             -3.13               8.616               
N              -19.215             -4.513              6.997               
C              -18.618             -3.445              6.198               
C              -18.402             -3.977              4.787               
O              -18.404             -5.186              4.559               
C              -17.275             -3.007              6.785               
C              -16.255             -4.105              6.719               
O              -16.287             -4.961              7.632               
O              -15.461             -4.153              5.743               
H              -19.187             -5.516              6.724               
H              -19.288             -2.711              6.136               
H              -16.954             -2.23               6.26                
H              -17.425             -2.756              7.731               
N              -18.208             -3.052              3.84                
C              -18.03              -3.432              2.434               
C              -16.831             -4.359              2.219               
O              -16.857             -5.218              1.324               
C              -17.848             -2.182              1.568               
C              -19.117             -1.428              1.258               
C              -20.331             -2.083              1.061               
C              -19.069             -0.05               1.106               
C              -21.482             -1.369              0.743               
C              -20.211             0.669               0.788               
C              -21.421             0.007               0.601               
H              -18.195             -2.077              4.176               
H              -18.853             -3.955              2.167               
H              -17.238             -1.565              2.051               
H              -17.445             -2.467              0.706               
H              -20.379             -3.073              1.149               
H              -18.2               0.431               1.228               
H              -22.351             -1.86               0.617               
H              -20.161             1.676               0.691               
H              -22.243             0.523               0.366               
N              -15.732             -4.146              2.953               
C              -14.578             -5.019              2.786               
C              -14.876             -6.456              3.189               
O              -14.516             -7.402              2.482               
H              -15.779             -3.358              3.603               
H              -14.28              -5                  1.818               
H              -13.809             -4.669              3.345               
N              -15.536             -6.636              4.334               
C              -15.98              -7.965              4.736               
C              -16.94              -8.57               3.713               
O              -16.855             -9.764              3.402               
C              -16.619             -7.866              6.123               
O              -15.617             -7.436              7.058               
C              -17.191             -9.206              6.57                
H              -15.697             -5.781              4.887               
H              -15.172             -8.567              4.804               
H              -17.353             -7.163              6.102               
H              -18.144             -9.089              6.856               
H              -17.152             -9.861              5.812               
H              -16.658             -9.562              7.34                
H              -15.775             -6.479              7.321               
N              -17.858             -7.765              3.173               
C              -18.768             -8.259              2.137               
C              -18.009             -8.708              0.894               
O              -18.31              -9.765              0.322               
C              -19.799             -7.179              1.803               
C              -20.771             -6.95               2.953               
S              -21.79              -5.486              2.741               
C              -22.808             -5.976              1.359               
H              -17.869             -6.802              3.536               
H              -19.259             -9.057              2.508               
H              -19.325             -6.321              1.612               
H              -20.32              -7.461              0.998               
H              -21.354             -7.792              3.053               
H              -20.23              -6.897              3.827               
H              -22.467             -6.836              0.975               
H              -23.754             -6.104              1.664               
H              -22.783             -5.267              0.651               
N              -16.997             -7.941              0.483               
C              -16.159             -8.353              -0.64               
C              -15.498             -9.696              -0.362              
O              -15.488             -10.584             -1.223              
C              -15.102             -7.287              -0.934              
C              -14.017             -7.751              -1.903              
C              -14.481             -7.818              -3.342              
C              -13.325             -8.254              -4.236              
N              -13.723             -8.528              -5.643              
H              -16.866             -7.066              1.01                
H              -16.736             -8.44               -1.461              
H              -15.557             -6.496              -1.332              
H              -14.665             -7.034              -0.075              
H              -13.236             -7.115              -1.84               
H              -13.699             -8.665              -1.618              
H              -15.206             -8.485              -3.42               
H              -14.78              -6.922              -3.631              
H              -12.62              -7.529              -4.228              
H              -12.909             -9.088              -3.842              
H              -13.787             -9.516              -5.783              
H              -14.611             -8.106              -5.825              
H              -13.037             -8.146              -6.262              
N              -14.917             -9.854              0.831               
C              -14.274             -11.117             1.18                
C              -15.273             -12.264             1.143               
O              -14.939             -13.374             0.713               
C              -13.636             -11.013             2.564               
C              -12.414             -10.115             2.584               
O              -11.855             -9.826              1.504               
O              -11.997             -9.717              3.692               
H              -14.963             -9.037              1.454               
H              -13.582             -11.304             0.473               
H              -14.315             -10.642             3.189               
H              -13.366             -11.926             2.849               
N              -16.515             -12.008             1.573               
C              -17.517             -13.068             1.556               
C              -17.916             -13.437             0.131               
O              -18.155             -14.615             -0.158              
C              -18.722             -12.7               2.429               
C              -18.401             -12.628             3.922               
C              -19.592             -12.197             4.769               
C              -20.735             -13.186             4.686               
N              -21.79              -12.921             5.704               
H              -16.684             -11.052             1.896               
H              -17.134             -13.887             2.006               
H              -19.057             -11.808             2.14                
H              -19.427             -13.391             2.295               
H              -18.095             -13.535             4.231               
H              -17.651             -11.973             4.061               
H              -19.298             -12.125             5.719               
H              -19.911             -11.31              4.444               
H              -21.146             -13.137             3.769               
H              -20.375             -14.116             4.823               
H              -22                 -13.768             6.191               
H              -21.46              -12.235             6.352               
H              -22.612             -12.583             5.248               
N              -18.005             -12.454             -0.773              
C              -18.215             -12.772             -2.186              
C              -17.08              -13.643             -2.71               
O              -17.313             -14.695             -3.317              
C              -18.362             -11.491             -3.027              
C              -19.527             -10.63              -2.553              
C              -18.541             -11.86              -4.503              
C              -19.535             -9.255              -3.227              
H              -17.917             -11.502             -0.401              
H              -19.048             -13.329             -2.227              
H              -17.52              -10.959             -2.925              
H              -20.377             -11.091             -2.766              
H              -19.448             -10.496             -1.575              
H              -18.575             -11.026             -5.048              
H              -17.772             -12.422             -4.797              
H              -19.391             -12.369             -4.614              
H              -19.614             -9.38               -4.212              
H              -20.312             -8.733              -2.885              
H              -18.685             -8.784              -3.009              
N              -15.835             -13.204             -2.501              
C              -14.682             -13.931             -3.03               
C              -14.668             -15.363             -2.516              
O              -14.337             -16.302             -3.253              
C              -13.38              -13.184             -2.686              
C              -12.163             -14.038             -3.006              
C              -13.32              -11.879             -3.444              
H              -15.764             -12.334             -1.951              
H              -14.765             -13.96              -4.032              
H              -13.374             -13.024             -1.702              
H              -11.348             -13.459             -3.041              
H              -12.046             -14.733             -2.297              
H              -12.291             -14.485             -3.891              
H              -12.872             -12.024             -4.328              
H              -14.249             -11.536             -3.595              
H              -12.8               -11.207             -2.914              
N              -15.01              -15.553             -1.24               
C              -15.061             -16.883             -0.648              
C              -16.305             -17.657             -1.057              
O              -16.454             -18.82              -0.658              
C              -14.975             -16.788             0.878               
H              -15.232             -14.683             -0.718              
H              -14.244             -17.404             -0.95               
H              -15.772             -16.296             1.223               
H              -14.955             -17.708             1.265               
H              -14.142             -16.299             1.131               
N              -17.18              -17.044             -1.855              
C              -18.428             -17.662             -2.319              
C              -19.349             -18.032             -1.16               
O              -20.028             -19.061             -1.188              
C              -18.191             -18.849             -3.258              
C              -19.395             -19.139             -4.145              
H              -16.899             -16.07              -2.128              
H              -18.911             -16.97              -2.872              
H              -17.413             -18.64              -3.841              
H              -18.004             -19.655             -2.706              
O              -20.193             -18.246             -4.451              
N              -19.527             -20.388             -4.565              
H              -18.859             -21.083             -4.292              
H              -20.294             -20.642             -5.155              
N              -19.398             -17.171             -0.142              
C              -20.225             -17.42              1.034               
C              -19.591             -16.805             2.287               
C              -18.241             -17.404             2.651               
C              -17.651             -16.793             3.908               
O              -18.418             -16.221             4.713               
O              -16.416             -16.885             4.093               
H              -18.807             -16.326             -0.26               
H              -20.23              -18.418             1.238               
H              -19.456             -15.847             2.113               
H              -20.202             -16.965             3.04                
H              -18.365             -18.364             2.817               
H              -17.616             -17.229             1.914               
H              -21.2591            -17.0703            0.926282            
H              -20.2131            -5.11845            8.67249             
