354
6.xyz
C              -8.309              -6.156              5.773               
O              -7.488              -5.887              6.658               
N              -8.153              -7.205              4.961               
C              -6.985              -8.07               5.084               
C              -5.727              -7.336              4.647               
O              -4.68               -7.431              5.299               
C              -7.194              -9.37               4.288               
C              -5.891              -10.173             4.204               
C              -8.313              -10.196             4.899               
H              -8.903              -7.34               4.269               
H              -6.88               -8.318              6.053               
H              -7.438              -9.122              3.355               
H              -6.098              -11.146             4.289               
H              -5.453              -9.997              3.324               
H              -5.284              -9.892              4.945               
H              -7.948              -10.742             5.654               
H              -9.027              -9.585              5.242               
H              -8.697              -10.802             4.202               
N              -5.804              -6.608              3.529               
C              -4.661              -5.82               3.086               
C              -4.276              -4.794              4.141               
O              -3.087              -4.537              4.367               
C              -4.988              -5.131              1.761               
C              -5.288              -6.05               0.578               
C              -5.742              -5.23               -0.617              
C              -4.063              -6.873              0.24                
H              -6.704              -6.654              3.034               
H              -3.881              -6.438              2.943               
H              -5.792              -4.559              1.905               
H              -4.207              -4.566              1.509               
H              -6.01               -6.688              0.837               
H              -5.02               -4.587              -0.877              
H              -5.937              -5.838              -1.387              
H              -6.57               -4.721              -0.38               
H              -3.801              -7.431              1.03                
H              -4.263              -7.475              -0.536              
H              -3.303              -6.266              -0.001              
N              -5.271              -4.21               4.812               
C              -4.981              -3.255              5.874               
C              -4.266              -3.935              7.032               
O              -3.247              -3.438              7.523               
C              -6.271              -2.586              6.348               
C              -6.945              -1.762              5.267               
S              -8.581              -1.179              5.743               
C              -8.176              0.186               6.823               
H              -6.219              -4.485              4.523               
H              -4.369              -2.548              5.502               
H              -6.913              -3.295              6.656               
H              -6.06               -1.984              7.125               
H              -6.332              -0.971              5.031               
H              -6.996              -2.327              4.41                
H              -7.743              0.918               6.294               
H              -9.011              0.537               7.251               
H              -7.544              -0.123              7.536               
N              -4.786              -5.08               7.479               
C              -4.133              -5.827              8.55                
C              -2.713              -6.22               8.158               
O              -1.79               -6.137              8.974               
C              -4.965              -7.056              8.927               
H              -5.658              -5.377              7.016               
H              -4.09               -5.245              9.372               
H              -4.545              -7.872              8.534               
H              -4.997              -7.14               9.921               
H              -5.891              -6.95               8.569               
N              -2.511              -6.63               6.902               
C              -1.172              -7.023              6.471               
C              -0.202              -5.851              6.535               
O              0.96                -6.021              6.923               
C              -1.21               -7.614              5.062               
C              -1.881              -8.966              4.975               
C              -1.948              -9.49               3.559               
O              -2.034              -10.724             3.384               
O              -1.912              -8.67               2.616               
H              -3.341              -6.642              6.301               
H              -0.835              -7.771              7.058               
H              -1.715              -6.989              4.491               
H              -0.279              -7.719              4.757               
H              -1.357              -9.607              5.505               
H              -2.804              -8.878              5.303               
N              -0.653              -4.656              6.146               
C              0.208               -3.486              6.256               
C              0.516               -3.173              7.716               
O              1.664               -2.87               8.065               
C              -0.432              -2.288              5.554               
H              -1.611              -4.641              5.782               
H              1.075               -3.674              5.779               
H              -0.965              -2.608              4.773               
H              -1.031              -1.81               6.195               
H              0.284               -1.668              5.239               
N              -0.495              -3.255              8.587               
C              -0.255              -3.022              10.009              
C              0.695               -4.06               10.589              
O              1.543               -3.73               11.424              
C              -1.575              -3.031              10.78               
C              -2.53               -1.88               10.45               
C              -3.867              -2.085              11.134              
C              -1.927              -0.549              10.862              
H              -1.409              -3.485              8.184               
H              0.163               -2.111              10.118              
H              -2.048              -3.877              10.569              
H              -1.366              -2.975              11.747              
H              -2.662              -1.845              9.459               
H              -3.736              -2.122              12.126              
H              -4.481              -1.326              10.91               
H              -4.277              -2.944              10.823              
H              -1.066              -0.404              10.372              
H              -2.563              0.192               10.64               
H              -1.751              -0.55               11.848              
N              0.56                -5.324              10.172              
C              1.413               -6.369              10.729              
C              2.857               -6.207              10.275              
O              3.785               -6.435              11.058              
C              0.881               -7.758              10.371              
C              1.731               -8.875              10.94               
C              1.265               -10.257             10.529              
O              0.529               -10.373             9.526               
O              1.649               -11.231             11.212              
H              -0.162              -5.48               9.462               
H              1.372               -6.337              11.737              
H              -0.018              -7.84               10.752              
H              0.891               -7.839              9.395               
H              2.653               -8.763              10.609              
H              1.689               -8.829              11.925              
N              3.07                -5.806              9.02                
C              4.431               -5.542              8.566               
C              5.077               -4.46               9.418               
O              6.235               -4.588              9.835               
C              4.42                -5.135              7.093               
C              5.786               -4.771              6.552               
C              5.686               -4.314              5.106               
C              7.007               -3.757              4.603               
N              6.908               -3.299              3.194               
H              2.234               -5.706              8.437               
H              4.972               -6.386              8.65                
H              4.063               -5.9                6.562               
H              3.818               -4.345              6.994               
H              6.17                -4.029              7.098               
H              6.383               -5.569              6.597               
H              5.433               -5.092              4.539               
H              4.995               -3.601              5.04                
H              7.276               -2.984              5.184               
H              7.708               -4.472              4.67                
H              5.946               -3.182              2.948               
H              7.386               -2.426              3.093               
H              7.326               -3.98               2.592               
N              4.33                -3.391              9.703               
C              4.841               -2.326              10.557              
C              5.069               -2.828              11.98               
O              6.083               -2.502              12.613              
C              3.848               -1.167              10.54               
C              4.257               0.119               11.241              
C              5.602               0.572               10.698              
C              3.186               1.192               11.052              
H              3.389               -3.389              9.277               
H              5.723               -2.012              10.187              
H              3.663               -0.939              9.58                
H              3                   -1.486              10.969              
H              4.334               -0.05               12.218              
H              5.529               0.734               9.713               
H              5.88                1.418               11.154              
H              6.288               -0.137              10.867              
H              2.322               0.87                11.439              
H              3.47                2.03                11.518              
H              3.069               1.375               10.076              
N              4.13                -3.619              12.503              
C              4.294               -4.202              13.829              
C              5.599               -4.985              13.917              
O              6.374               -4.821              14.867              
C              3.089               -5.095              14.13               
C              3.235               -5.929              15.37               
C              3.102               -5.357              16.623              
C              3.474               -7.29               15.283              
C              3.225               -6.122              17.764              
C              3.596               -8.064              16.423              
C              3.469               -7.48               17.663              
H              3.305               -3.775              11.902              
H              4.37                -3.439              14.479              
H              2.299               -4.508              14.246              
H              2.967               -5.707              13.361              
H              2.914               -4.38               16.705              
H              3.559               -7.72               14.381              
H              3.138               -5.686              18.67               
H              3.78                -9.058              16.336              
H              3.552               -8.032              18.495              
N              5.867               -5.834              12.921              
C              7.077               -6.65               12.969              
C              8.336               -5.799              12.852              
O              9.358               -6.114              13.476              
C              7.036               -7.728              11.883              
C              5.906               -8.747              12.04               
C              5.742               -9.578              10.781              
C              6.139               -9.641              13.245              
H              5.181               -5.858              12.161              
H              7.102               -7.134              13.854              
H              6.911               -7.278              11.01               
H              7.891               -8.224              11.912              
H              5.053               -8.257              12.231              
H              6.592               -10.071             10.59               
H              4.999               -10.236             10.907              
H              5.526               -8.979              10.008              
H              6.182               -9.082              14.075              
H              5.388               -10.298             13.327              
H              7.002               -10.137             13.134              
N              8.284               -4.723              12.068              
C              9.426               -3.819              12.003              
C              9.685               -3.178              13.359              
O              10.837              -3.073              13.794              
C              9.197               -2.759              10.922              
C              9.219               -3.315              9.504               
C              8.678               -2.334              8.48                
H              7.413               -4.597              11.543              
H              10.238              -4.361              11.758              
H              8.306               -2.332              11.074              
H              9.915               -2.065              10.995              
H              10.163              -3.539              9.263               
H              8.662               -4.145              9.477               
O              8.015               -1.358              8.83                
N              8.959               -2.591              7.208               
H              8.619               -1.986              6.465               
H              9.525               -3.409              6.985               
N              8.622               -2.777              14.059              
C              8.791               -2.102              15.344              
C              9.236               -3.062              16.441              
O              10.113              -2.728              17.249              
C              7.505               -1.378              15.736              
C              7.225               -0.152              14.89               
C              8.462               0.728               14.812              
C              8.209               1.983               14.01               
N              9.456               2.787               13.902              
H              7.709               -2.978              13.629              
H              9.493               -1.38               15.242              
H              6.745               -2.013              15.632              
H              7.585               -1.094              16.688              
H              6.975               -0.438              13.969              
H              6.483               0.37                15.301              
H              8.73                0.986               15.738              
H              9.196               0.212               14.378              
H              7.901               1.732               13.094              
H              7.506               2.528               14.464              
H              10.234              2.235               14.202              
H              9.59                3.065               12.951              
H              9.379               3.599               14.48               
N              8.653               -4.26               16.497              
C              9.052               -5.183              17.553              
C              10.423              -5.782              17.307              
O              11.026              -6.322              18.242              
C              8.001               -6.255              17.913              
C              7.756               -7.207              16.743              
C              6.714               -5.604              18.386              
C              7.062               -8.499              17.157              
H              7.954               -4.455              15.785              
H              9.122               -4.631              18.397              
H              8.358               -6.788              18.677              
H              7.192               -6.744              16.067              
H              8.634               -7.438              16.334              
H              6.072               -6.309              18.685              
H              6.91                -4.99               19.149              
H              6.307               -5.082              17.637              
H              6.178               -8.279              17.561              
H              6.933               -9.072              16.351              
H              7.63                -8.975              17.824              
N              10.952              -5.678              16.086              
C              12.297              -6.176              15.833              
C              13.322              -5.485              16.722              
O              14.363              -6.068              17.038              
C              12.663              -6.021              14.356              
C              13.979              -6.683              14.021              
H              10.353              -5.237              15.38               
H              12.305              -7.154              16.079              
H              11.945              -6.44               13.81               
H              12.731              -5.05               14.151              
O              14.128              -7.89               14.186              
N              14.945              -5.897              13.561              
H              14.777              -4.913              13.459              
H              15.833              -6.28               13.318              
N              13.035              -4.26               17.16               
C              13.939              -3.51               18.02               
C              13.447              -3.433              19.462              
O              13.858              -2.539              20.209              
C              14.217              -2.124              17.441              
C              14.87               -2.195              16.064              
C              15.611              -0.929              15.674              
O              15.983              -0.142              16.57               
O              15.825              -0.727              14.463              
H              12.115              -3.891              16.835              
H              14.858              -3.939              18.004              
H              13.362              -1.663              17.339              
H              14.837              -1.666              18.039              
H              15.524              -2.933              16.073              
H              14.161              -2.343              15.395              
N              12.576              -4.35               19.867              
C              12.195              -4.44               21.266              
C              13.458              -4.544              22.117              
O              14.301              -5.415              21.858              
C              11.341              -5.689              21.483              
C              10.656              -5.841              22.843              
C              9.574               -4.777              23.004              
C              10.071              -7.238              23.019              
H              12.209              -4.968              19.126              
H              11.709              -3.606              21.525              
H              10.621              -5.692              20.787              
H              11.929              -6.488              21.356              
H              11.336              -5.733              23.564              
H              8.894               -4.882              22.279              
H              9.133               -4.884              23.894              
H              9.989               -3.87               22.944              
H              10.803              -7.916              22.955              
H              9.632               -7.305              23.915              
H              9.395               -7.409              22.302              
N              13.627              -3.695              23.126              
C              14.846              -3.748              23.936              
C              14.845              -4.966              24.842              
O              13.803              -5.546              25.154              
C              14.771              -2.461              24.762              
C              13.306              -2.207              24.897              
C              12.694              -2.656              23.592              
H              15.664              -3.737              23.348              
H              15.197              -2.591              25.658              
H              15.224              -1.708              24.285              
H              12.925              -2.73               25.667              
H              13.13               -1.23               25.055              
H              11.782              -3.038              23.731              
H              12.646              -1.904              22.935              
N              16.042              -5.356              25.264              
C              16.155              -6.413              26.256              
C              15.585              -5.942              27.589              
O              15.56               -4.745              27.888              
C              17.619              -6.815              26.441              
O              18.466              -5.717              26.081              
C              17.958              -8.02               25.58               
H              16.843              -4.866              24.845              
H              15.62               -7.204              25.947              
H              17.783              -7.032              27.425              
H              18.895              -8.322              25.77               
H              17.325              -8.771              25.78               
H              17.883              -7.778              24.61               
H              18.334              -5.476              25.114              
N              15.097              -6.903              28.372              
C              14.73               -6.714              29.784              
C              13.226              -6.73               30.037              
O              12.77               -7.247              31.06               
C              15.37               -5.455              30.384              
C              14.934              -5.152              31.799              
C              15.698              -3.993              32.405              
O              16.497              -3.357              31.682              
O              15.501              -3.719              33.607              
O              12.303              -6.287              29.356              
H              14.992              -7.833              27.887              
H              15.174              -7.441              30.342              
H              16.345              -5.594              30.39               
H              15.111              -4.693              29.817              
H              13.983              -4.905              31.786              
H              15.106              -5.943              32.356              
H              -9.15845            -5.53619            5.61526             
