284
5.xyz
C              58.615              8.507               24.566              
C              57.682              9.087               25.626              
O              56.469              9.196               25.409              
C              59.019              7.078               24.934              
C              59.756              6.366               23.813              
O              59.55               6.724               22.635              
O              60.54               5.44                24.113              
H              58.111              8.518               23.692              
H              59.614              7.122               25.729              
H              58.193              6.569               25.146              
N              58.229              9.458               26.788              
C              57.384              9.965               27.866              
C              56.801              11.33               27.509              
O              55.662              11.643              27.875              
C              58.155              9.969               29.202              
C              57.33               10.619              30.3                
C              58.545              8.546               29.602              
H              59.248              9.358               26.849              
H              56.618              9.324               27.991              
H              58.97               10.528              29.078              
H              56.365              10.621              30.037              
H              57.441              10.106              31.151              
H              57.638              11.561              30.438              
H              58.099              7.899               28.986              
H              59.537              8.448               29.536              
H              58.25               8.378               30.541              
N              57.559              12.157              26.785              
C              57.032              13.436              26.319              
C              55.807              13.23               25.433              
O              54.786              13.912              25.591              
C              58.13               14.197              25.571              
C              57.644              15.508              24.988              
H              58.514              11.822              26.593              
H              56.725              13.945              27.13               
H              58.871              14.387              26.21               
H              58.46               13.62               24.828              
O              56.995              15.529              23.946              
N              57.975              16.613              25.649              
H              58.525              16.546              26.484              
H              57.679              17.506              25.316              
N              55.887              12.281              24.498              
C              54.75               12.008              23.627              
C              53.548              11.519              24.424              
O              52.405              11.885              24.123              
C              55.147              10.999              22.552              
C              56.303              11.462              21.678              
S              56.524              10.462              20.196              
C              54.945              10.715              19.399              
H              56.785              11.783              24.451              
H              54.491              12.868              23.169              
H              55.411              10.134              22.995              
H              54.352              10.821              21.959              
H              56.147              12.449              21.432              
H              57.16               11.463              22.248              
H              54.318              11.175              20.03               
H              55.066              11.282              18.582              
H              54.556              9.831               19.132              
N              53.788              10.699              25.452              
C              52.693              10.24               26.3                
C              52.01               11.411              26.99               
O              50.777              11.448              27.095              
C              53.216              9.251               27.339              
C              53.799              7.991               26.745              
S              54.616              6.98                27.993              
C              55.091              5.573               27.002              
H              54.772              10.434              25.583              
H              52.013              9.783               25.714              
H              53.928              9.706               27.892              
H              52.458              8.996               27.956              
H              53.051              7.464               26.288              
H              54.455              8.247               26.003              
H              54.3                5.241               26.484              
H              55.816              5.838               26.363              
H              55.428              4.839               27.595              
N              52.796              12.377              27.47               
C              52.212              13.551              28.098              
C              51.309              14.323              27.156              
O              50.195              14.71               27.52               
H              53.806              12.219              27.358              
H              51.68               13.266              28.913              
H              52.954              14.161              28.425              
N              51.776              14.55               25.925              
C              50.957              15.243              24.937              
C              49.629              14.531              24.722              
O              48.572              15.169              24.671              
C              51.701              15.323              23.606              
C              52.794              16.343              23.573              
H              52.729              14.204              25.746              
H              50.766              16.173              25.277              
H              52.104              14.421              23.401              
H              51.041              15.544              22.875              
N              52.549              17.7                23.59               
C              54.138              16.205              23.493              
C              53.696              18.353              23.538              
N              54.676              17.47               23.477              
H              51.643              18.121              23.635              
H              54.645              15.348              23.452              
H              53.804              19.343              23.543              
N              49.664              13.205              24.59               
C              48.452              12.476              24.238              
C              47.496              12.375              25.417              
O              46.275              12.409              25.231              
C              48.806              11.113              23.647              
C              49.483              11.276              22.299              
C              49.942              9.985               21.656              
N              50.756              10.294              20.483              
C              51.124              9.414               19.558              
N              50.748              8.147               19.652              
N              51.866              9.807               18.531              
H              50.578              12.767              24.751              
H              47.986              12.964              23.486              
H              49.431              10.662              24.255              
H              47.976              10.605              23.517              
H              48.845              11.734              21.66               
H              50.291              11.876              22.404              
H              50.486              9.486               22.31               
H              49.145              9.475               21.377              
H              51.063              11.251              20.366              
H              50.169              7.835               20.402              
H              51.049              7.485               18.955              
H              52.129              10.771              18.447              
H              52.162              9.148               17.842              
N              48.025              12.274              26.638              
C              47.144              12.258              27.799              
C              46.528              13.631              28.039              
O              45.354              13.732              28.419              
C              47.89               11.763              29.037              
C              46.962              11.391              30.194              
C              46.019              10.264              29.782              
C              47.763              11.009              31.43               
H              49.044              12.213              26.679              
H              46.399              11.601              27.629              
H              48.393              10.954              28.788              
H              48.48               12.486              29.349              
H              46.425              12.193              30.452              
H              46.555              9.461               29.524              
H              45.421              10.034              30.549              
H              45.466              10.561              29.004              
H              48.333              11.782              31.711              
H              47.137              10.77               32.174              
H              48.347              10.224              31.221              
N              47.299              14.702              27.818              
C              46.732              16.041              27.95               
C              45.644              16.289              26.913              
O              44.697              17.039              27.176              
C              47.817              17.118              27.874              
C              47.288              18.511              28.218              
C              48.38               19.544              28.403              
O              49.451              19.4                27.782              
O              48.164              20.503              29.177              
H              48.27               14.504              27.562              
H              46.346              16.155              28.875              
H              48.508              16.896              28.528              
H              48.149              17.147              26.956              
H              46.714              18.81               27.475              
H              46.789              18.447              29.065              
N              45.753              15.663              25.738              
C              44.686              15.768              24.748              
C              43.415              15.075              25.227              
O              42.303              15.546              24.953              
C              45.15               15.189              23.411              
H              46.618              15.126              25.603              
H              44.481              16.744              24.594              
H              45.497              14.264              23.554              
H              44.38               15.164              22.776              
H              45.875              15.764              23.035              
N              43.558              13.953              25.936              
C              42.401              13.304              26.547              
C              41.747              14.232              27.562              
O              40.515              14.351              27.62               
C              42.813              11.961              27.178              
C              41.658              11.359              27.969              
C              43.295              10.998              26.104              
H              44.523              13.6                26.01               
H              41.731              13.113              25.823              
H              43.546              12.143              27.827              
H              40.798              11.771              27.669              
H              41.627              10.372              27.814              
H              41.792              11.539              28.943              
H              43.109              11.388              25.202              
H              44.278              10.85               26.21               
H              42.812              10.128              26.2                
N              42.562              14.909              28.374              
C              42.027              15.858              29.344              
C              41.318              17.015              28.649              
O              40.217              17.411              29.046              
C              43.152              16.366              30.247              
C              42.716              17.42               31.225              
C              41.871              17.102              32.277              
C              43.156              18.728              31.096              
C              41.467              18.07               33.18               
C              42.758              19.701              31.994              
C              41.912              19.371              33.04               
H              43.566              14.707              28.257              
H              41.328              15.369              29.879              
H              43.499              15.596              30.761              
H              43.852              16.756              29.668              
H              41.549              16.164              32.388              
H              43.771              18.97               30.342              
H              40.848              17.819              33.935              
H              43.086              20.654              31.882              
H              41.623              20.071              33.694              
N              41.933              17.563              27.595              
C              41.319              18.678              26.876              
C              39.951              18.3                26.322              
O              39.007              19.098              26.38               
C              42.231              19.144              25.741              
C              43.426              19.933              26.236              
O              43.402              20.39               27.398              
O              44.384              20.106              25.455              
H              42.839              17.145              27.348              
H              41.173              19.419              27.545              
H              42.557              18.338              25.258              
H              41.696              19.72               25.133              
N              39.824              17.088              25.779              
C              38.548              16.668              25.211              
C              37.474              16.556              26.287              
O              36.333              16.99               26.085              
C              38.718              15.346              24.464              
C              37.435              14.801              23.869              
C              37.722              13.835              22.733              
C              36.441              13.206              22.215              
N              35.359              14.213              22.037              
H              40.67               16.505              25.797              
H              38.253              17.352              24.531              
H              39.373              15.489              23.724              
H              39.081              14.671              25.106              
H              36.922              14.32               24.58               
H              36.887              15.56               23.518              
H              38.155              14.332              21.99               
H              38.318              13.113              23.065              
H              36.628              12.765              21.332              
H              36.134              12.506              22.867              
H              35.575              14.797              21.255              
H              34.492              13.743              21.874              
H              35.287              14.771              22.863              
N              37.823              15.989              27.443              
C              36.842              15.834              28.513              
C              36.551              17.163              29.199              
O              35.4                17.45               29.548              
C              37.347              14.812              29.532              
C              36.381              14.55               30.674              
C              35.76               13.17               30.562              
C              34.502              13.069              31.406              
N              34.701              13.675              32.748              
H              38.803              15.685              27.508              
H              35.983              15.479              28.118              
H              37.511              13.951              29.055              
H              38.204              15.152              29.916              
H              36.875              14.614              31.541              
H              35.654              15.236              30.652              
H              35.52               13                  29.613              
H              36.413              12.494              30.884              
H              33.756              13.545              30.936              
H              34.258              12.103              31.513              
H              34.777              14.668              32.657              
H              33.921              13.452              33.333              
H              35.539              13.312              33.156              
N              37.576              17.986              29.391              
C              37.472              19.196              30.199              
C              37.014              20.396              29.379              
O              36.186              21.187              29.836              
C              38.826              19.489              30.85               
C              38.785              20.453              31.99               
C              39.231              21.741              31.987              
C              38.288              20.202              33.311              
N              39.038              22.312              33.222              
C              38.46               21.388              34.053              
C              37.711              19.093              33.936              
C              38.075              21.497              35.387              
C              37.329              19.203              35.263              
C              37.513              20.395              35.973              
O              37.343              20.756              28.249              
H              38.459              17.693              28.915              
H              36.774              19.03               30.911              
H              39.206              18.633              31.198              
H              39.438              19.871              30.159              
H              39.64               22.206              31.203              
H              39.279              23.248              33.475              
H              37.574              18.238              33.442              
H              38.212              22.358              35.886              
H              36.917              18.417              35.716              
H              37.223              20.433              36.931              
H              59.4826             9.10751             24.4364             
