366
2.xyz
C              40.141              -2.164              -16.675             
C              41.11               -1.732              -15.583             
O              42.283              -2.123              -15.588             
C              39.874              -1.016              -17.648             
C              41.11               -0.449              -18.325             
C              40.724              0.574               -19.378             
C              41.94               1.074               -20.137             
N              41.56               1.663               -21.446             
H              40.555              -2.923              -17.193             
H              39.251              -1.349              -18.359             
H              39.425              -0.276              -17.141             
H              41.684              -0.007              -17.639             
H              41.613              -1.191              -18.762             
H              40.098              0.15                -20.025             
H              40.288              1.349               -18.932             
H              42.405              1.769               -19.584             
H              42.567              0.306               -20.29              
H              40.607              1.438               -21.649             
H              41.667              2.657               -21.408             
H              42.15               1.291               -22.163             
N              40.635              -0.928              -14.629             
C              41.538              -0.424              -13.603             
C              41.943              -1.519              -12.618             
O              43.06               -1.488              -12.088             
C              40.923              0.807               -12.925             
C              40.767              1.989               -13.89              
C              40.051              3.206               -13.304             
H              39.637              -0.713              -14.684             
H              42.378              -0.097              -14.059             
H              40.022              0.57                -12.582             
H              41.515              1.095               -12.18              
H              41.683              2.276               -14.191             
H              40.251              1.675               -14.695             
O              39.326              3.903               -14.016             
N              40.283              3.489               -12.028             
H              39.854              4.286               -11.583             
H              40.91               2.879               -11.499             
N              41.073              -2.504              -12.375             
C              41.473              -3.65               -11.56              
C              42.543              -4.476              -12.265             
O              43.513              -4.918              -11.636             
C              40.261              -4.523              -11.237             
C              39.307              -3.999              -10.161             
C              38.092              -4.897              -10.049             
C              39.989              -3.919              -8.817              
H              40.144              -2.387              -12.793             
H              41.854              -3.309              -10.693             
H              39.73               -4.632              -12.075             
H              40.596              -5.411              -10.93              
H              39.019              -3.074              -10.408             
H              38.379              -5.825              -9.804              
H              37.476              -4.545              -9.343              
H              37.609              -4.922              -10.926             
H              40.776              -3.3                -8.87               
H              39.346              -3.574              -8.129              
H              40.307              -4.829              -8.541              
N              42.383              -4.696              -13.568             
C              43.39               -5.441              -14.317             
C              44.718              -4.699              -14.368             
O              45.776              -5.329              -14.481             
C              42.878              -5.734              -15.723             
C              41.772              -6.768              -15.726             
O              41.534              -7.364              -14.654             
O              41.14               -6.974              -16.779             
H              41.524              -4.311              -13.981             
H              43.552              -6.305              -13.82              
H              42.526              -4.889              -16.106             
H              43.636              -6.075              -16.263             
N              44.687              -3.37               -14.288             
C              45.904              -2.569              -14.243             
C              46.579              -2.599              -12.88              
O              47.565              -1.883              -12.677             
C              45.598              -1.121              -14.636             
H              43.73               -2.96               -14.261             
H              46.555              -2.931              -14.933             
H              44.95               -0.733              -13.984             
H              46.444              -0.591              -14.625             
H              45.203              -1.105              -15.553             
N              46.066              -3.396              -11.946             
C              46.66               -3.517              -10.634             
C              46.313              -2.416              -9.663              
O              46.957              -2.317              -8.615              
H              45.212              -3.914              -12.245             
H              46.389              -4.421              -10.225             
H              47.683              -3.566              -10.732             
N              45.318              -1.587              -9.965              
C              44.964              -0.511              -9.053              
C              44.337              -1.083              -7.791              
O              43.616              -2.083              -7.831              
C              44.006              0.47                -9.728              
C              44.588              1.103               -10.987             
C              43.828              2.341               -11.442             
O              42.92               2.802               -10.709             
O              44.143              2.853               -12.537             
H              44.845              -1.769              -10.859             
H              45.785              0.014               -8.811              
H              43.203              -0.026              -9.99               
H              43.817              1.192               -9.094              
H              45.512              1.377               -10.794             
H              44.541              0.443               -11.715             
N              44.631              -0.452              -6.662              
C              44.11               -0.913              -5.388              
C              42.653              -0.502              -5.252              
O              42.243              0.568               -5.711              
C              44.929              -0.333              -4.234              
C              46.352              -0.896              -4.135              
C              46.429              -2.205              -3.359              
O              45.4                -2.636              -2.793              
O              47.526              -2.803              -3.313              
H              45.247              0.374               -6.769              
H              44.183              -1.912              -5.33               
H              45.007              0.636               -4.375              
H              44.469              -0.552              -3.395              
H              46.674              -1.071              -5.047              
H              46.909              -0.238              -3.663              
N              41.87               -1.371              -4.628              
C              40.443              -1.145              -4.514              
C              39.894              -2.064              -3.443              
O              40.392              -3.171              -3.237              
C              39.742              -1.444              -5.843              
H              42.356              -2.201              -4.241              
H              40.283              -0.197              -4.239              
H              38.792              -1.141              -5.79               
H              40.209              -0.957              -6.578              
H              39.772              -2.426              -6.018              
N              38.842              -1.603              -2.782              
C              38.09               -2.479              -1.908              
C              37.119              -3.343              -2.705              
O              36.854              -4.484              -2.318              
C              37.345              -1.648              -0.864              
O              36.439              -0.757              -1.52               
C              38.329              -0.822              -0.025              
H              38.619              -0.609              -2.941              
H              38.733              -3.09               -1.429              
H              36.799              -2.273              -0.268              
H              39.192              -1.32               0.064               
H              38.496              0.056               -0.475              
H              37.941              -0.663              0.883               
H              36.946              -0.065              -2.045              
N              36.593              -2.824              -3.816              
C              35.689              -3.591              -4.668              
C              36.399              -4.804              -5.254              
O              37.543              -4.712              -5.71               
C              35.225              -2.718              -5.838              
O              34.618              -1.506              -5.365              
C              34.217              -3.462              -6.669              
H              36.878              -1.846              -4.016              
H              34.919              -3.915              -4.107              
H              36.04               -2.461              -6.406              
H              33.287              -3.288              -6.328              
H              34.268              -3.165              -7.629              
H              34.393              -4.451              -6.629              
H              35.325              -0.829              -5.136              
N              35.681              -5.928              -5.322              
C              36.229              -7.139              -5.921              
C              35.652              -7.357              -7.317              
O              34.544              -6.914              -7.637              
C              35.922              -8.372              -5.078              
O              34.538              -8.671              -5.159              
C              36.283              -8.143              -3.614              
H              34.729              -5.862              -4.923              
H              37.226              -7.033              -6.005              
H              36.445              -9.168              -5.451              
H              36.548              -9.012              -3.191              
H              37.048              -7.499              -3.551              
H              35.493              -7.766              -3.126              
H              34.003              -8.047              -4.575              
N              36.414              -8.075              -8.141              
C              35.958              -8.356              -9.499              
C              34.607              -9.061              -9.5                
O              33.749              -8.766              -10.34              
C              36.999              -9.183              -10.253             
C              36.643              -9.392              -11.704             
C              37.856              -9.798              -12.539             
C              38.784              -8.612              -12.805             
N              39.621              -8.84               -14.013             
H              37.308              -8.397              -7.753              
H              35.868              -7.484              -9.999              
H              37.869              -8.704              -10.204             
H              37.068              -10.071             -9.81               
H              35.951              -10.115             -11.777             
H              36.267              -8.542              -12.082             
H              38.367              -10.493             -12.045             
H              37.541              -10.153             -13.412             
H              38.226              -7.792              -12.937             
H              39.377              -8.484              -12.009             
H              39.03               -8.939              -14.813             
H              40.234              -8.061              -14.144             
H              40.16               -9.673              -13.891             
N              34.389              -9.998              -8.566              
C              33.114              -10.714             -8.561              
C              31.946              -9.752              -8.384              
O              30.917              -9.877              -9.068              
C              33.095              -11.843             -7.534              
O              33.159              -11.347             -6.221              
H              35.147              -10.153             -7.904              
H              33.009              -11.168             -9.453              
H              32.251              -12.365             -7.648              
H              33.881              -12.438             -7.699              
H              32.492              -11.823             -5.646              
N              32.102              -8.752              -7.512              
C              31.017              -7.796              -7.313              
C              30.741              -7.006              -8.586              
O              29.578              -6.766              -8.933              
C              31.346              -6.844              -6.175              
C              31.515              -7.524              -4.845              
C              31.926              -6.545              -3.777              
H              33                  -8.721              -7.026              
H              30.184              -8.315              -7.086              
H              32.199              -6.362              -6.395              
H              30.605              -6.171              -6.095              
H              30.649              -7.941              -4.58               
H              32.22               -8.225              -4.925              
O              33.084              -6.156              -3.684              
N              30.956              -6.105              -2.989              
H              31.155              -5.447              -2.229              
H              30.004              -6.428              -3.147              
N              31.797              -6.618              -9.302              
C              31.652              -5.895              -10.567             
C              30.918              -6.759              -11.584             
O              29.983              -6.313              -12.266             
C              33.035              -5.47               -11.088             
C              32.899              -4.689              -12.383             
C              33.803              -4.647              -10.034             
H              32.717              -6.869              -8.891              
H              31.098              -5.076              -10.396             
H              33.547              -6.298              -11.298             
H              33.478              -5.102              -13.087             
H              31.946              -4.705              -12.686             
H              33.183              -3.741              -12.235             
H              34.34               -3.949              -10.502             
H              33.145              -4.22               -9.419              
H              34.403              -5.259              -9.525              
N              31.308              -8.03               -11.676             
C              30.714              -8.939              -12.649             
C              29.243              -9.186              -12.378             
O              28.469              -9.435              -13.31              
C              31.5                -10.262             -12.685             
C              32.91               -10.129             -13.225             
C              33.658              -11.409             -12.941             
C              32.895              -9.83               -14.734             
H              32.053              -8.307              -11.01              
H              30.806              -8.527              -13.569             
H              31.558              -10.599             -11.758             
H              31.006              -10.886             -13.268             
H              33.364              -9.369              -12.772             
H              33.197              -12.179             -13.387             
H              34.595              -11.341             -13.291             
H              33.689              -11.573             -11.953             
H              32.406              -8.975              -14.892             
H              33.835              -9.748              -15.06              
H              32.435              -10.577             -15.21              
N              28.838              -9.103              -11.114             
C              27.434              -9.269              -10.769             
C              26.575              -8.178              -11.435             
O              25.613              -8.469              -12.147             
C              27.348              -9.268              -9.235              
C              26.098              -9.898              -8.698              
O              25.162              -10.158             -9.449              
O              26.083              -10.106             -7.45               
H              29.584              -8.917              -10.424             
H              27.129              -10.147             -11.151             
H              28.142              -9.767              -8.89               
H              27.394              -8.317              -8.933              
N              26.94               -6.921              -11.248             
C              26.234              -5.828              -11.914             
C              26.38               -5.924              -13.432             
O              25.407              -5.759              -14.176             
C              26.761              -4.479              -11.427             
C              26.382              -4.156              -10.011             
C              25.138              -3.629              -9.716              
C              27.268              -4.383              -8.982              
C              24.779              -3.369              -8.395              
C              26.915              -4.138              -7.67               
C              25.679              -3.62               -7.403              
O              25.342              -3.354              -6.079              
H              27.741              -6.78               -10.611             
H              25.255              -5.901              -11.69              
H              27.757              -4.492              -11.494             
H              26.392              -3.768              -12.023             
H              24.489              -3.431              -10.446             
H              28.185              -4.733              -9.185              
H              23.87               -3.005              -8.191              
H              27.557              -4.338              -6.93               
H              24.61               -2.68               -6.065              
N              27.608              -6.138              -13.907             
C              27.856              -6.054              -15.345             
C              27.123              -7.144              -16.116             
O              26.58               -6.881              -17.196             
C              29.355              -6.084              -15.603             
C              29.81               -5.969              -17.066             
C              29.396              -4.644              -17.695             
C              31.288              -6.134              -17.106             
H              28.324              -6.355              -13.208             
H              27.529              -5.156              -15.674             
H              29.771              -5.322              -15.108             
H              29.714              -6.947              -15.252             
H              29.406              -6.726              -17.59              
H              29.805              -3.889              -17.182             
H              29.711              -4.612              -18.643             
H              28.4                -4.561              -17.672             
H              31.551              -7.034              -16.739             
H              31.624              -6.064              -18.052             
H              31.736              -5.421              -16.555             
N              27.156              -8.389              -15.631             
C              26.489              -9.476              -16.336             
C              25.004              -9.205              -16.509             
O              24.444              -9.434              -17.59              
C              26.725              -10.797             -15.631             
O              26.191              -10.802             -14.307             
H              27.675              -8.503              -14.749             
H              26.901              -9.551              -17.255             
H              26.288              -11.531             -16.151             
H              27.709              -10.969             -15.575             
H              26.832              -10.346             -13.693             
N              24.349              -8.715              -15.467             
C              22.931              -8.44               -15.583             
C              22.675              -7.277              -16.536             
O              21.763              -7.341              -17.373             
C              22.345              -8.165              -14.209             
C              20.846              -8.018              -14.251             
C              20.03               -9.129              -14.329             
C              20.258              -6.771              -14.238             
C              18.646              -8.999              -14.38              
C              18.873              -6.627              -14.284             
C              18.082              -7.743              -14.348             
O              16.712              -7.589              -14.401             
H              24.906              -8.558              -14.621             
H              22.475              -9.256              -15.96              
H              22.568              -8.925              -13.612             
H              22.731              -7.319              -13.864             
H              20.433              -10.046             -14.35              
H              20.829              -5.951              -14.194             
H              18.069              -9.815              -14.438             
H              18.469              -5.712              -14.27              
H              16.454              -6.784              -13.871             
N              23.481              -6.223              -16.433             
C              23.311              -5.052              -17.286             
C              23.497              -5.408              -18.755             
O              22.705              -4.976              -19.602             
C              24.281              -3.957              -16.864             
H              24.22               -6.306              -15.712             
H              22.378              -4.691              -17.158             
H              25.204              -4.335              -16.8               
H              24.269              -3.222              -17.541             
H              24.008              -3.594              -15.974             
N              24.525              -6.197              -19.094             
C              24.711              -6.532              -20.513             
C              23.557              -7.387              -21.029             
O              23.169              -7.283              -22.2               
C              26.081              -7.167              -20.83              
C              27.226              -6.275              -20.408             
C              26.206              -8.546              -20.277             
H              25.118              -6.517              -18.339             
H              24.72               -5.672              -21.035             
H              26.139              -7.274              -21.824             
H              26.91               -5.327              -20.34              
H              27.575              -6.57               -19.517             
H              27.964              -6.328              -21.083             
H              25.315              -9.01               -20.301             
H              26.863              -9.078              -20.82              
H              26.527              -8.509              -19.325             
N              22.988              -8.245              -20.187             
H              23.451              -8.34               -19.272             
H              22.1581             -8.75292            -20.459             
H              39.2209             -2.49373            -16.2586            
