295
2.xyz
C              24.215              4.903               21.055              
C              25.691              4.847               20.681              
O              26.549              4.673               21.547              
C              23.894              6.252               21.686              
C              24.084              7.423               20.737              
C              23.571              8.698               21.352              
H              23.681              4.746               20.219              
H              22.941              6.249               21.989              
H              24.494              6.391               22.475              
H              25.053              7.524               20.545              
H              23.58               7.241               19.901              
O              22.407              8.782               21.78               
N              24.425              9.706               21.396              
H              24.15               10.613              21.786              
H              25.369              9.575               21.036              
N              25.986              4.98                19.396              
C              27.38               4.883               18.971              
C              28.161              6.112               19.413              
O              27.661              7.23                19.373              
C              27.464              4.706               17.451              
O              26.892              5.811               16.791              
H              25.199              5.146               18.766              
H              27.787              4.08                19.418              
H              28.421              4.627               17.193              
H              26.969              3.881               17.2                
H              27.615              6.384               16.404              
N              29.394              5.893               19.863              
C              30.243              6.998               20.283              
C              30.664              7.831               19.071              
O              30.678              9.064               19.125              
C              31.457              6.435               21.042              
C              31.12               5.888               22.415              
C              30.475              6.681               23.357              
C              31.451              4.596               22.779              
C              30.176              6.206               24.599              
C              31.151              4.112               24.039              
C              30.508              4.916               24.939              
O              30.196              4.421               26.192              
H              29.683              4.901               19.886              
H              29.715              7.591               20.898              
H              31.847              5.698               20.499              
H              32.12               7.169               21.153              
H              30.227              7.626               23.109              
H              31.914              4.001               22.122              
H              29.71               6.796               25.273              
H              31.407              3.173               24.287              
H              29.493              3.72                26.098              
N              30.963              7.168               17.967              
C              31.316              7.822               16.713              
C              30.087              8.016               15.839              
O              29.128              7.253               15.913              
C              32.351              6.978               15.975              
O              33.475              6.773               16.814              
H              30.925              6.123               18.068              
H              31.69               8.731               16.929              
H              31.951              6.102               15.749              
H              32.639              7.461               15.161              
H              33.298              7.174               17.712              
N              30.125              9.038               14.989              
C              29.119              9.113               13.941              
C              29.366              8.013               12.919              
O              30.481              7.517               12.753              
C              29.126              10.474              13.25               
O              30.435              10.737              12.724              
C              28.724              11.576              14.225              
H              30.872              9.715               15.131              
H              28.216              8.967               14.351              
H              28.471              10.456              12.467              
H              27.816              11.38               14.601              
H              29.388              11.624              14.974              
H              28.7                12.457              13.748              
H              30.399              10.815              11.723              
N              28.306              7.611               12.245              
C              28.382              6.562               11.246              
C              27.7                7.037               9.981               
O              26.76               7.835               10.021              
C              27.715              5.271               11.736              
C              28.428              4.647               12.917              
S              27.767              3.028               13.265              
C              29.003              2.405               14.398              
H              27.42               8.106               12.489              
H              29.346              6.394               11.037              
H              26.768              5.477               12.003              
H              27.7                4.608               10.981              
H              29.424              4.601               12.708              
H              28.33               5.265               13.721              
H              29.864              2.257               13.909              
H              29.151              3.068               15.134              
H              28.693              1.538               14.792              
N              28.179              6.518               8.861               
C              27.542              6.777               7.577               
C              26.264              5.946               7.48                
O              26.303              4.719               7.606               
C              28.51               6.438               6.448               
O              27.886              6.635               5.193               
H              29.023              5.928               8.974               
H              27.284              7.741               7.543               
H              29.302              7.032               6.513               
H              28.779              5.486               6.53                
H              28.522              6.39                4.462               
N              25.13               6.618               7.28                
C              23.825              5.973               7.219               
C              23.045              6.523               6.029               
O              23.388              7.552               5.449               
C              23.021              6.177               8.52                
C              22.657              7.667               8.724               
C              23.809              5.598               9.694               
C              21.613              7.922               9.798               
H              25.261              7.652               7.171               
H              23.995              5.008               7.027               
H              22.17               5.667               8.442               
H              23.494              8.161               8.959               
H              22.315              8.02                7.852               
H              23.263              5.67                10.526              
H              24.017              4.639               9.512               
H              24.658              6.109               9.806               
H              21.952              7.582               10.673              
H              21.44               8.903               9.861               
H              20.77               7.446               9.556               
N              21.964              5.83                5.687               
C              21.002              6.323               4.708               
C              19.599              6.128               5.255               
O              19.215              5.007               5.602               
C              21.143              5.606               3.36                
O              22.476              5.784               2.842               
C              20.117              6.183               2.389               
H              21.864              4.914               6.174               
H              21.158              7.301               4.572               
H              20.992              4.605               3.497               
H              20.581              6.742               1.7                 
H              19.627              5.438               1.933               
H              19.462              6.752               2.889               
H              23.032              6.309               3.493               
N              18.829              7.212               5.321               
C              17.436              7.142               5.734               
C              16.562              6.979               4.5                 
O              16.739              7.701               3.507               
C              17.008              8.394               6.493               
C              17.508              8.416               7.924               
O              17.603              7.338               8.573               
O              17.808              9.53                8.399               
H              19.305              8.098               5.055               
H              17.328              6.313               6.283               
H              17.375              9.186               6.015               
H              16.014              8.426               6.502               
N              15.626              6.035               4.564               
C              14.633              5.834               3.525               
C              13.258              6.176               4.086               
O              12.852              5.642               5.125               
C              14.675              4.395               3.019               
S              16.285              3.905               2.395               
H              15.671              5.449               5.433               
H              14.826              6.463               2.773               
H              14.431              3.794               3.775               
H              14.009              4.307               2.283               
N              12.539              7.065               3.401               
C              11.237              7.535               3.868               
C              10.242              7.437               2.726               
O              10.462              8.014               1.654               
C              11.316              8.972               4.389               
C              9.962               9.617               4.591               
C              10.041              10.795              5.541               
N              9.797               10.413              6.931               
C              10.748              10.206              7.84                
N              12.03               10.333              7.517               
N              10.412              9.869               9.078               
H              12.98               7.39                2.517               
H              10.931              6.948               4.616               
H              11.79               8.959               5.263               
H              11.824              9.513               3.728               
H              9.614               9.946               3.715               
H              9.328               8.949               4.976               
H              10.954              11.195              5.467               
H              9.356               11.467              5.261               
H              8.837               10.297              7.224               
H              12.3                10.604              6.596               
H              12.737              10.155              8.209               
H              9.445               9.791               9.329               
H              11.119              9.694               9.761               
N              9.151               6.711               2.956               
C              8.148               6.533               1.917               
C              7.562               7.88                1.498               
O              7.334               8.761               2.331               
C              7.043               5.596               2.412               
C              6.072               5.219               1.326               
C              4.96                4.313               1.806               
O              4.381               3.603               0.96                
O              4.672               4.314               3.025               
H              9.084               6.302               3.9                 
H              8.562               6.087               1.116               
H              7.474               4.777               2.735               
H              6.549               6.067               3.114               
H              5.653               6.043               0.979               
H              6.562               4.735               0.618               
N              7.354               8.05                0.192               
C              6.754               9.27                -0.338              
C              5.229               9.203               -0.253              
O              4.638               8.168               0.069               
C              7.172               9.498               -1.793              
O              6.693               8.416               -2.607              
C              8.691               9.598               -1.909              
H              7.651               7.252               -0.402              
H              7.066               10.048              0.217               
H              6.744               10.36               -2.132              
H              8.988               10.524              -1.669              
H              9.121               8.942               -1.286              
H              8.972               9.395               -2.849              
H              7.161               7.562               -2.36               
N              4.588               10.33               -0.57               
C              3.132               10.358              -0.608              
C              2.563               9.686               -1.845              
O              1.518               9.032               -1.781              
H              5.189               11.137              -0.775              
H              2.767               9.898               0.22                
H              2.815               11.322              -0.576              
N              3.241               9.833               -2.986              
C              2.822               9.158               -4.211              
C              3.107               7.66                -4.183              
O              2.692               6.938               -5.1                
C              3.514               9.798               -5.415              
O              4.828               9.288               -5.573              
H              4.068               10.452              -2.925              
H              1.821               9.281               -4.308              
H              2.987               9.595               -6.234              
H              3.564               10.781              -5.271              
H              5.204               9.055               -4.677              
N              3.816               7.185               -3.168              
C              4.071               5.761               -3.016              
C              2.776               5.029               -2.686              
O              2.144               5.309               -1.662              
C              5.1                 5.541               -1.912              
O              5.382               4.165               -1.722              
H              4.166               7.905               -2.505              
H              4.41                5.407               -3.892              
H              5.945               6.013               -2.159              
H              4.743               5.918               -1.058              
H              5.536               3.988               -0.751              
N              2.388               4.086               -3.543              
C              1.285               3.178               -3.255              
C              1.777               1.757               -3.468              
O              2.221               1.411               -4.567              
C              0.053               3.444               -4.137              
C              -0.37               4.903               -4.343              
C              -0.644              5.678               -3.052              
C              -1.51               4.929               -2.05               
N              -1.916              5.829               -0.911              
H              2.938               4.056               -4.429              
H              1.013               3.287               -2.302              
H              0.231               3.042               -5.048              
H              -0.731              2.948               -3.732              
H              0.36                5.381               -4.856              
H              -1.206              4.92                -4.912              
H              0.236               5.891               -2.617              
H              -1.103              6.539               -3.289              
H              -2.333              4.599               -2.508              
H              -0.996              4.157               -1.682              
H              -1.095              6.171               -0.462              
H              -2.448              6.589               -1.275              
H              -2.465              5.304               -0.266              
N              1.697               0.946               -2.423              
C              2.022               -0.466              -2.543              
C              1.225               -1.082              -3.693              
O              0.036               -0.775              -3.85               
C              1.706               -1.192              -1.232              
C              1.848               -2.687              -1.339              
C              3.088               -3.295              -1.203              
C              0.745               -3.493              -1.595              
C              3.231               -4.661              -1.314              
C              0.877               -4.862              -1.704              
C              2.124               -5.444              -1.559              
O              2.269               -6.812              -1.667              
H              1.392               1.394               -1.541              
H              2.996               -0.553              -2.761              
H              2.335               -0.864              -0.536              
H              0.768               -0.982              -0.98               
H              3.897               -2.727              -1.021              
H              -0.155              -3.072              -1.7                
H              4.136               -5.085              -1.216              
H              0.076               -5.435              -1.888              
H              3.098               -7.091              -1.187              
N              1.831               -1.954              -4.513              
C              3.19                -2.501              -4.477              
C              3.005               -3.868              -5.121              
C              2.02                -3.58               -6.206              
C              1.068               -2.531              -5.633              
H              3.499               -2.621              -3.511              
H              3.863               -4.204              -5.498              
H              2.637               -4.523              -4.469              
H              2.481               -3.221              -7.022              
H              1.513               -4.409              -6.458              
H              0.855               -1.835              -6.315              
H              0.224               -2.956              -5.308              
H              3.92823             -1.91645            -5.04288            
H              16.4404             4.74561             1.3737              
H              23.9835             4.13216             21.7436             
