369
1.xyz
C              -26.169             -21.58              0.803               
O              -26.077             -20.423             0.377               
N              -25.209             -22.491             0.631               
C              -23.99              -22.199             -0.117              
C              -24.332             -22.119             -1.595              
O              -24.682             -23.132             -2.213              
C              -22.947             -23.286             0.124               
H              -25.404             -23.413             1.071               
H              -23.632             -21.315             0.18                
H              -22.69              -23.292             1.089               
H              -23.329             -24.175             -0.125              
H              -22.14              -23.102             -0.435              
N              -24.225             -20.91              -2.151              
C              -24.569             -20.609             -3.537              
C              -24.143             -21.71              -4.498              
O              -24.933             -22.12              -5.358              
C              -23.972             -19.256             -3.95               
O              -23.627             -19.217             -5.328              
H              -23.862             -20.174             -1.486              
H              -25.576             -20.519             -3.595              
H              -24.644             -18.54              -3.764              
H              -23.149             -19.091             -3.406              
H              -22.94              -19.916             -5.517              
N              -22.925             -22.23              -4.327              
C              -22.351             -23.169             -5.285              
C              -20.962             -23.587             -4.833              
O              -20.469             -23.106             -3.806              
C              -22.242             -22.521             -6.67               
O              -21.254             -21.501             -6.701              
H              -22.435             -21.912             -3.47               
H              -22.931             -23.987             -5.305              
H              -22.001             -23.225             -7.335              
H              -23.126             -22.122             -6.907              
H              -21                 -21.314             -7.649              
N              -20.314             -24.471             -5.604              
C              -18.913             -24.787             -5.342              
C              -18.012             -23.567             -5.507              
O              -16.897             -23.565             -4.987              
C              -18.436             -25.962             -6.217              
O              -18.849             -25.833             -7.582              
H              -20.871             -24.885             -6.361              
H              -18.837             -25.1               -4.384              
H              -17.438             -25.999             -6.187              
H              -18.815             -26.809             -5.848              
H              -18.469             -24.993             -7.959              
N              -18.481             -22.519             -6.188              
C              -17.713             -21.289             -6.358              
C              -17.899             -20.306             -5.218              
O              -17.194             -19.293             -5.192              
C              -18.166             -20.532             -7.618              
C              -18.1               -21.37              -8.871              
O              -17.204             -22.212             -9.021              
N              -19.061             -21.168             -9.772              
H              -19.436             -22.656             -6.584              
H              -16.732             -21.552             -6.369              
H              -19.109             -20.234             -7.477              
H              -17.573             -19.736             -7.729              
H              -19.77              -20.484             -9.597              
H              -19.072             -21.697             -10.618             
N              -18.838             -20.579             -4.301              
C              -19.331             -19.564             -3.366              
C              -18.202             -18.958             -2.546              
O              -18.056             -17.729             -2.467              
C              -20.363             -20.203             -2.442              
C              -20.864             -19.312             -1.329              
C              -21.897             -18.427             -1.549              
C              -20.306             -19.369             -0.054              
C              -22.376             -17.615             -0.547              
C              -20.787             -18.565             0.958               
C              -21.823             -17.692             0.708               
O              -22.317             -16.861             1.694               
H              -19.179             -21.56              -4.313              
H              -19.762             -18.826             -3.904              
H              -21.15              -20.482             -2.996              
H              -19.951             -21.017             -2.026              
H              -22.314             -18.371             -2.467              
H              -19.555             -19.998             0.124               
H              -23.125             -16.972             -0.731              
H              -20.383             -18.615             1.876               
H              -23.063             -16.317             1.317               
N              -17.406             -19.809             -1.906              
C              -16.355             -19.3               -1.035              
C              -15.29              -18.554             -1.821              
O              -14.757             -17.538             -1.356              
C              -15.746             -20.43              -0.222              
S              -16.832             -21.015             1.089               
H              -17.59              -20.804             -2.073              
H              -16.772             -18.654             -0.38               
H              -15.556             -21.189             -0.834              
H              -14.905             -20.099             0.192               
N              -14.962             -19.041             -3.016              
C              -13.975             -18.333             -3.815              
C              -14.428             -16.907             -4.072              
O              -13.66              -15.956             -3.893              
C              -13.742             -19.082             -5.125              
C              -12.989             -20.35              -4.92               
H              -15.436             -19.898             -3.297              
H              -13.131             -18.282             -3.271              
H              -14.632             -19.288             -5.526              
H              -13.224             -18.485             -5.734              
O              -12.156             -20.447             -4.014              
N              -13.255             -21.345             -5.765              
H              -13.928             -21.212             -6.493              
H              -12.784             -22.22              -5.672              
N              -15.689             -16.743             -4.482              
C              -16.225             -15.421             -4.772              
C              -16.392             -14.603             -3.497              
O              -16.006             -13.431             -3.453              
C              -17.574             -15.55              -5.478              
C              -17.562             -16.389             -6.742              
C              -18.958             -16.621             -7.295              
H              -16.234             -17.619             -4.572              
H              -15.565             -14.939             -5.362              
H              -18.234             -15.96              -4.837              
H              -17.9               -14.627             -5.719              
H              -17.021             -15.919             -7.437              
H              -17.15              -17.275             -6.537              
O              -19.958             -16.329             -6.632              
N              -19.035             -17.139             -8.519              
H              -19.934             -17.334             -8.946              
H              -18.171             -17.337             -9.022              
N              -16.945             -15.213             -2.444              
C              -17.351             -14.441             -1.268              
C              -16.156             -14.019             -0.422              
O              -16.109             -12.886             0.071               
C              -18.324             -15.262             -0.423              
C              -19.743             -15.293             -0.953              
S              -20.587             -13.701             -0.77               
C              -20.822             -13.638             1.013               
H              -17.055             -16.231             -2.531              
H              -17.817             -13.605             -1.59               
H              -17.983             -16.212             -0.364              
H              -18.341             -14.883             0.515               
H              -19.721             -15.575             -1.938              
H              -20.261             -16.031             -0.466              
H              -21.661             -14.125             1.254               
H              -20.042             -14.07              1.466               
H              -20.892             -12.684             1.305               
N              -15.184             -14.913             -0.231              
C              -13.985             -14.512             0.501               
C              -13.328             -13.309             -0.16               
O              -12.788             -12.438             0.521               
C              -12.994             -15.673             0.583               
C              -13.491             -16.869             1.378               
S              -13.804             -16.467             3.124               
C              -12.147             -16.207             3.755               
H              -15.346             -15.841             -0.618              
H              -14.26              -14.246             1.431               
H              -12.775             -15.982             -0.354              
H              -12.138             -15.342             1.007               
H              -14.343             -17.226             0.937               
H              -12.802             -17.623             1.304               
H              -12.183             -15.607             4.555               
H              -11.746             -17.086             4.017               
H              -11.581             -15.782             3.047               
N              -13.389             -13.231             -1.485              
C              -12.784             -12.093             -2.159              
C              -13.661             -10.853             -2.028              
O              -13.176             -9.779              -1.655              
C              -12.532             -12.441             -3.627              
C              -11.485             -11.545             -4.277              
C              -11.851             -11.23              -5.716              
C              -10.713             -10.518             -6.423              
N              -9.808              -9.819              -5.457              
H              -13.871             -13.999             -1.958              
H              -11.889             -11.9               -1.738              
H              -12.213             -13.38              -3.676              
H              -13.386             -12.336             -4.124              
H              -11.424             -10.691             -3.762              
H              -10.602             -12.011             -4.26               
H              -12.04              -12.08              -6.194              
H              -12.65              -10.639             -5.725              
H              -10.178             -11.189             -6.942              
H              -11.093             -9.842              -7.059              
H              -8.859              -10.009             -5.702              
H              -9.979              -8.837              -5.501              
H              -9.993              -10.153             -4.535              
N              -14.96              -10.993             -2.301              
C              -15.837             -9.827              -2.33               
C              -15.987             -9.178              -0.958              
O              -16.215             -7.966              -0.875              
C              -17.199             -10.192             -2.908              
O              -17.889             -11.117             -2.084              
H              -15.272             -11.956             -2.481              
H              -15.426             -9.143              -2.952              
H              -17.748             -9.362              -2.991              
H              -17.068             -10.6               -3.811              
H              -17.234             -11.601             -1.506              
N              -15.882             -9.955              0.122               
C              -15.971             -9.404              1.473               
C              -14.62              -8.969              2.023               
O              -14.512             -8.683              3.223               
C              -16.617             -10.407             2.435               
C              -18.029             -10.793             2.06                
C              -18.959             -9.595              2.034               
N              -20.349             -9.985              1.81                
C              -21.172             -10.423             2.764               
N              -20.747             -10.503             4.022               
N              -22.419             -10.773             2.464               
H              -15.735             -10.961             -0.078              
H              -16.587             -8.598              1.453               
H              -16.058             -11.231             2.442               
H              -16.634             -9.997              3.342               
H              -18.033             -11.209             1.15                
H              -18.386             -11.448             2.727               
H              -18.887             -9.126              2.911               
H              -18.665             -8.99               1.298               
H              -20.712             -9.92               0.873               
H              -19.827             -10.222             4.274               
H              -21.37              -10.853             4.733               
H              -22.739             -10.685             1.517               
H              -23.029             -11.117             3.17                
N              -13.583             -8.954              1.182               
C              -12.286             -8.389              1.517               
C              -11.51              -9.238              2.51                
O              -10.724             -8.713              3.299               
C              -12.398             -6.938              1.994               
C              -11.747             -5.957              1.043               
H              -13.791             -9.391              0.249               
H              -11.741             -8.362              0.661               
H              -13.365             -6.709              2.077               
H              -11.952             -6.866              2.883               
O              -11.338             -6.317              -0.069              
N              -11.645             -4.702              1.477               
H              -11.983             -4.456              2.385               
H              -11.229             -4.004              0.893               
N              -11.703             -10.556             2.482               
C              -10.977             -11.454             3.364               
C              -11.903             -12.559             3.874               
C              -13.211             -11.988             4.432               
C              -14.218             -13.082             4.782               
C              -12.878             -11.146             5.639               
H              -12.406             -10.876             1.786               
H              -10.674             -10.932             4.178               
H              -12.131             -13.139             3.121               
H              -11.45              -13.027             4.601               
H              -13.616             -11.374             3.746               
H              -13.824             -13.687             5.473               
H              -15.051             -12.663             5.14                
H              -14.435             -13.608             3.961               
H              -12.264             -10.399             5.375               
H              -13.718             -10.758             6.026               
H              -12.427             -11.71              6.335               
C              -27.881             -22.433             7.769               
C              -26.576             -21.636             7.672               
O              -26.586             -20.411             7.809               
C              -28.801             -22.047             6.608               
O              -28.134             -22.214             5.363               
H              -27.645             -23.402             7.79                
H              -29.603             -22.632             6.625               
H              -29.062             -21.094             6.708               
H              -28.702             -21.842             4.631               
N              -25.452             -22.336             7.471               
C              -24.129             -21.713             7.409               
C              -23.349             -22.28              6.239               
O              -23.669             -23.34              5.704               
C              -23.289             -21.899             8.695               
C              -22.933             -23.38              8.908               
C              -24.045             -21.287             9.883               
C              -21.86              -23.644             9.969               
H              -25.603             -23.364             7.363               
H              -24.287             -20.745             7.212               
H              -22.441             -21.393             8.582               
H              -23.766             -23.871             9.169               
H              -22.61              -23.753             8.035               
H              -23.477             -21.35              10.699              
H              -24.246             -20.331             9.685               
H              -24.895             -21.788             10.023              
H              -22.18              -23.293             10.845              
H              -21.703             -24.626             10.03               
H              -21.021             -23.179             9.701               
N              -22.291             -21.563             5.866               
C              -21.331             -22.033             4.875               
C              -19.941             -21.861             5.462               
O              -19.57              -20.755             5.876               
C              -21.458             -21.255             3.569               
O              -22.766             -21.454             3.016               
C              -20.383             -21.723             2.579               
H              -22.21              -20.637             6.344               
H              -21.489             -23.002             4.712               
H              -21.346             -20.258             3.76                
H              -19.484             -21.672             3.014               
H              -20.568             -22.668             2.307               
H              -20.396             -21.135             1.77                
H              -23.333             -21.994             3.646               
N              -19.198             -22.957             5.54                
C              -17.805             -22.92              5.965               
C              -16.921             -22.795             4.73                
O              -17.129             -23.498             3.734               
C              -17.408             -24.18              6.736               
C              -17.992             -24.225             8.132               
O              -18.128             -23.157             8.773               
O              -18.31              -25.342             8.594               
H              -19.691             -23.836             5.274               
H              -17.678             -22.087             6.502               
H              -17.736             -24.968             6.225               
H              -16.416             -24.2               6.802               
N              -15.943             -21.892             4.792               
C              -14.952             -21.742             3.743               
C              -13.595             -22.1               4.318               
O              -13.222             -21.591             5.378               
C              -14.924             -20.295             3.258               
S              -16.482             -19.749             2.655               
H              -15.956             -21.307             5.658               
H              -15.162             -22.388             3.012               
H              -14.646             -19.726             4.027               
H              -14.246             -20.236             2.529               
N              -12.869             -22.987             3.635               
C              -11.565             -23.45              4.093               
C              -10.587             -23.431             2.93                
O              -10.873             -23.985             1.862               
C              -11.651             -24.87              4.668               
C              -12.304             -24.926             6.037               
C              -12.039             -26.24              6.76                
N              -11.484             -25.982             8.089               
C              -10.181             -25.901             8.35                
N              -9.293              -26.072             7.375               
N              -9.763              -25.646             9.585               
H              -13.315             -23.317             2.751               
H              -11.232             -22.83              4.805               
H              -12.188             -25.424             4.044               
H              -10.729             -25.227             4.748               
H              -11.95              -24.183             6.607               
H              -13.295             -24.823             5.939               
H              -12.897             -26.722             6.85                
H              -11.388             -26.759             6.226               
H              -12.126             -25.859             8.852               
H              -9.584              -26.242             6.438               
H              -8.31               -26.028             7.588               
H              -10.438             -25.496             10.312              
H              -8.789              -25.603             9.788               
N              -9.439              -22.794             3.146               
C              -8.432              -22.666             2.102               
C              -7.919              -24.041             1.679               
O              -7.626              -24.901             2.516               
C              -7.27               -21.829             2.635               
C              -6.47               -21.169             1.545               
C              -5.197              -20.539             2.047               
O              -4.568              -19.818             1.247               
O              -4.834              -20.759             3.225               
H              -9.329              -22.406             4.102               
H              -8.826              -22.198             1.304               
H              -7.649              -21.124             3.204               
H              -6.673              -22.431             3.13                
H              -6.221              -21.855             0.881               
H              -7.017              -20.454             1.142               
N              -7.8                -24.243             0.366               
C              -7.308              -25.508             -0.176              
C              -5.785              -25.574             -0.063              
O              -5.136              -24.764             0.609               
C              -7.695              -25.648             -1.644              
O              -7.022              -24.63              -2.4                
C              -9.197              -25.521             -1.833              
H              -8.082              -23.438             -0.225              
H              -7.697              -26.26              0.363               
H              -7.382              -26.554             -1.989              
H              -9.675              -26.112             -1.178              
H              -9.481              -24.571             -1.684              
H              -9.448              -25.795             -2.765              
H              -7.371              -23.722             -2.149              
N              -5.198              -26.556             -0.742              
C              -3.756              -26.654             -0.864              
H              -5.859              -27.238             -1.172              
H              -3.322              -26.301             -0.02               
H              -3.491              -27.627             -0.956              
H              -3.38186            -26.0975            -1.72072            
H              -27.031             -21.8948            1.34883             
H              -10.0937            -11.8856            2.88645             
H              -28.3672            -22.187             8.67959             
