15

H -0.282784199	0.7482529755	1.2085265311
H 1.5960433071	0.1373362468	-1.1259639527
H 1.6445559482	1.5906580309	-0.1474272837
C -3.0951813627	0.3091838521	0.4129294236
C -2.4793042309	0.9546186196	-0.5698971509
C -0.9940771215	1.0625571539	-0.8020658434
C -0.0896579146	0.357363335	0.2046126332
C 1.3936616101	0.5247045277	-0.1224779035
H -2.5086963936	-0.1817684925	1.1824001282
H -3.089618735	1.4799223474	-1.2990212732
H -0.7812613501	0.6796712844	-1.8070914086
H -0.7327133535	2.1264937124	-0.8394858877
H -0.3340695379	-0.7089023616	0.2328732096
H -4.140099051067123	0.24250900568356165	0.5364288589369863
H 2.037715781950658	0.024121634311184192	0.5837697290282896
