10

C 3.225504272	0.2204429167	0.0213248168
C 2.2527980038	-1.3142233127	-1.3274652019
C 3.4169968743	-0.7045557429	-1.1740499362
O 2.3102335787	-0.501742619	0.795926497
Cl 4.6974730306	0.6005647752	0.9297545314
H 1.942096366	-2.0095287447	-2.0907973127
H 4.3118000332	-0.7624562214	-1.7733175669
H 2.622680449851974	1.0842452909513158	-0.26250658890592105
H 1.6393916519395975	-0.8965883158570469	-0.5766008082516778
H 1.670676964193662	-0.6480201534443661	0.08028914752112681
