48

H -8.374	-6.86	4.945
H -8.894	-6.882	6.637
N -5.237	-6.712	8.021
C -4.725	-6.308	9.337
C -5.547	-5.173	9.963
O -5.662	-5.1	11.187
C -3.257	-5.887	9.216
C -2.692	-5.339	10.536
O -2.487	-6.129	11.486
O -2.399	-4.124	10.6
H -4.605	-6.717	7.232
H -4.776	-7.167	10.006
H -2.669	-6.753	8.908
H -3.172	-5.121	8.442
N -6.163	-4.317	9.139
C -7.142	-3.321	9.566
C -6.472	-2.031	10.081
C -5.524	-1.306	9.104
C -4.092	-1.851	9.154
N -3.12	-0.851	8.679
C -1.866	-0.724	9.131
N -1.319	-1.652	9.91
N -1.172	0.358	8.793
H -6.072	-4.446	8.139
H -7.723	-3.748	10.385
H -7.264	-1.33	10.347
H -5.938	-2.251	11.006
H -5.898	-1.364	8.082
H -5.499	-0.257	9.401
H -3.861	-2.095	10.19
H -4.017	-2.755	8.55
H -3.478	-0.144	8.048
H -1.827	-2.519	10.134
H -0.374	-1.577	10.257
H -1.614	1.092	8.239
H -0.264	0.557	9.196
C -6.216	-9.833	6.38
O -5.064	-9.616	6.764
N -7.11	-8.862	6.186
C -6.837	-7.449	6.357
C -6.464	-7.183	7.812
O -7.283	-7.382	8.713
C -8.075	-6.637	5.967
H -8.03	-9.114	5.841
H -6.01	-7.17	5.702
H -7.855	-5.574	6.05
H -6.538469798657718	-10.82693288590604	6.153852348993288
H -7.824214765100672	-3.097664429530201	8.738724832214764
