55

N -2.198	-2.56	-4.366
C -1.858	-3.938	-4.039
C -0.453	-4.148	-4.606
O -0.217	-3.978	-5.804
C -2.887	-4.934	-4.613
C -2.707	-6.311	-3.959
C -4.343	-4.506	-4.382
H -2.144	-2.302	-5.352
H -1.835	-4.057	-2.955
H -2.735	-5.033	-5.689
H -3.38	-7.025	-4.43
H -1.685	-6.663	-4.087
H -2.927	-6.256	-2.892
H -4.552	-3.57	-4.898
H -5.009	-5.273	-4.776
H -4.533	-4.386	-3.318
N 0.508	-4.456	-3.733
C 1.929	-4.503	-4.069
C 2.321	-5.821	-4.751
O 3.489	-6.004	-5.094
C 2.745	-4.274	-2.782
C 2.424	-2.963	-2.033
C 2.806	-1.694	-2.812
C 2.449	-0.462	-1.975
N 2.905	0.813	-2.582
H 0.251	-4.675	-2.774
H 2.146	-3.701	-4.777
H 2.574	-5.111	-2.103
H 3.802	-4.27	-3.04
H 1.362	-2.925	-1.784
H 2.978	-2.965	-1.096
H 3.879	-1.702	-3.01
H 2.258	-1.652	-3.753
H 1.364	-0.436	-1.857
H 2.897	-0.565	-0.983
H 3.912	0.861	-2.631
H 2.531	0.947	-3.508
H 2.587	1.597	-2.003
N 1.374	-6.75	-4.924
H 0.414	-6.489	-4.743
C -2.474	-0.166	-3.996
C -2.354	-1.592	-3.465
O -2.339	-1.797	-2.251
C -1.074	0.439	-4.243
C -0.254	-0.218	-5.366
C -1.002	-0.271	-6.71
O -1.86	-1.166	-6.884
O -0.73	0.569	-7.598
H -3.047	-0.174	-4.923
H -1.182	1.497	-4.482
H -0.495	0.359	-3.322
H 0.673	0.348	-5.485
H 0.033	-1.224	-5.061
H -2.990074829931973	0.43014285714285716	-3.2826666666666666
H 1.503061224489796	-7.683959183673469	-5.299387755102041
