36

C 4.339	-13.149	7.253
C 4.981	-14.539	7.127
O 5.513	-15.058	8.107
C 3.256	-13.126	8.356
C 2.184	-14.235	8.274
C 1.33	-14.163	7.01
O 1.719	-14.66	5.958
N 0.191	-13.497	7.053
H 5.122	-12.446	7.541
H 3.758	-13.222	9.32
H 2.762	-12.153	8.347
H 2.657	-15.218	8.322
H 1.536	-14.151	9.149
H -0.102	-13.056	7.913
H -0.389	-13.451	6.233
N 4.918	-15.157	5.945
C 5.386	-16.512	5.7
C 5.859	-16.618	4.248
O 5.319	-15.966	3.356
C 4.231	-17.475	6.028
C 4.506	-18.939	5.685
S 6.049	-19.648	6.322
C 5.967	-21.243	5.465
H 4.442	-14.707	5.175
H 6.226	-16.73	6.363
H 4.013	-17.411	7.095
H 3.337	-17.165	5.485
H 3.681	-19.531	6.074
H 4.5	-19.038	4.601
H 5.054	-21.765	5.755
H 5.956	-21.08	4.386
H 6.833	-21.849	5.729
N 6.899	-17.417	4.021
H 7.253	-17.962	4.787
H 3.912455782312925	-12.826544217687074	6.332945578231293
H 7.261897959183673	-17.635571428571428	3.1057755102040816
