60

C -5.66	5.484	3.862
O -5.355	6.563	4.37
N -6.219	4.503	4.584
C -6.451	4.592	6.028
C -5.139	4.552	6.833
O -5.124	4.953	7.995
C -7.4	3.46	6.469
C -7.885	3.612	7.914
O -8.096	4.714	8.411
N -8.117	2.512	8.611
H -6.471	3.646	4.113
H -6.94	5.547	6.23
H -8.279	3.457	5.823
H -6.885	2.503	6.355
H -8.061	1.591	8.175
H -8.445	2.581	9.563
N -4.028	4.093	6.239
C -2.721	4.095	6.898
C -2.005	5.454	6.786
O -0.983	5.645	7.448
C -1.85	2.985	6.308
O -2.435	1.711	6.566
H -4.05	3.822	5.261
H -2.858	3.879	7.958
H -1.738	3.134	5.234
H -0.862	3.02	6.768
H -3.365	1.752	6.288
N -2.511	6.396	5.981
C -1.808	7.634	5.637
C -2.695	8.875	5.854
O -2.467	9.927	5.251
C -1.226	7.504	4.212
O -2.172	6.982	3.29
C -0.028	6.546	4.185
H -3.337	6.193	5.432
H -0.967	7.765	6.321
H -0.881	8.479	3.869
H -2.919	7.602	3.249
H -0.351	5.524	4.379
H 0.459	6.592	3.211
H 0.699	6.843	4.942
N -3.704	8.766	6.725
C -4.622	9.833	7.109
C -4.84	9.735	8.616
O -4.938	10.79	9.274
C -5.959	9.691	6.36
C -5.858	10.005	4.859
C -7.188	9.734	4.153
O -7.971	10.639	3.87
N -7.473	8.473	3.875
O -4.892	8.604	9.145
H -3.806	7.906	7.248
H -4.181	10.805	6.876
H -6.335	8.676	6.495
H -6.683	10.378	6.801
H -5.576	11.051	4.725
H -5.091	9.381	4.4
H -6.794	7.76	4.129
H -8.347	8.23	3.434
H -5.456885906040268	5.299731543624161	2.824791946308725
