81

C -0.788	-16.057	-4.248
O -1.332	-15.358	-5.097
N -1.082	-17.344	-4.063
C -2.06	-18.186	-4.748
C -3.284	-17.423	-5.258
O -3.581	-17.522	-6.451
C -2.396	-19.323	-3.763
C -3.553	-20.257	-3.974
C -4.326	-20.421	-5.07
C -4.11	-21.167	-2.98
N -5.325	-21.341	-4.813
C -5.273	-21.793	-3.515
C -3.753	-21.502	-1.66
C -6.075	-22.659	-2.757
C -4.546	-22.366	-0.889
C -5.711	-22.937	-1.428
H -0.538	-17.808	-3.346
H -1.576	-18.62	-5.623
H -1.504	-19.942	-3.672
H -2.566	-18.872	-2.785
H -4.222	-19.88	-5.998
H -6.005	-21.628	-5.506
H -2.862	-21.076	-1.231
H -6.955	-23.115	-3.189
H -4.243	-22.589	0.123
H -6.309	-23.612	-0.832
N -3.958	-16.631	-4.419
C -5.051	-15.767	-4.864
C -4.973	-14.433	-4.142
O -4.339	-14.319	-3.093
C -6.428	-16.428	-4.653
C -6.68	-17.603	-5.612
C -8.126	-18.119	-5.604
C -8.536	-18.663	-4.229
N -9.884	-19.289	-4.249
H -3.602	-16.487	-3.48
H -4.927	-15.568	-5.93
H -6.516	-16.76	-3.617
H -7.196	-15.68	-4.844
H -6.443	-17.285	-6.628
H -6.02	-18.422	-5.346
H -8.798	-17.313	-5.902
H -8.202	-18.918	-6.344
H -7.796	-19.402	-3.914
H -8.521	-17.841	-3.507
H -10.136	-19.635	-3.334
H -10.598	-18.632	-4.531
H -9.915	-20.073	-4.884
N -5.651	-13.439	-4.706
C -5.753	-12.075	-4.225
C -7.215	-11.694	-4.448
O -7.837	-12.113	-5.429
C -4.761	-11.162	-4.981
C -4.902	-9.685	-4.587
C -3.311	-11.581	-4.702
H -6.215	-13.637	-5.522
H -5.526	-12.042	-3.159
H -4.947	-11.245	-6.049
H -4.16	-9.093	-5.123
H -5.884	-9.306	-4.872
H -4.752	-9.563	-3.513
H -3.108	-12.568	-5.114
H -2.62	-10.873	-5.158
H -3.139	-11.604	-3.625
N -7.751	-10.91	-3.518
C -9.172	-10.585	-3.392
C -9.796	-11.467	-2.293
C -9.531	-12.94	-2.498
N -10.035	-13.731	-3.508
C -8.638	-13.706	-1.797
C -9.455	-14.938	-3.416
N -8.587	-14.973	-2.389
H -7.141	-10.603	-2.766
H -9.668	-10.811	-4.337
H -9.397	-11.168	-1.323
H -10.874	-11.307	-2.276
H -10.696	-13.448	-4.222
H -8.04	-13.371	-0.962
H -9.631	-15.76	-4.101
H 0.01049664429530206	-15.673107382550334	-3.650523489932886
H -9.307006711409397	-9.50710067114094	-3.1981073825503357
