47

C -7.546	-10.143	1.078
C -6.606	-10.915	0.147
O -6.503	-10.546	-1.022
C -6.883	-8.899	1.708
C -7.932	-7.999	2.378
C -5.81	-9.23	2.759
H -8.372	-9.795	0.458
H -6.409	-8.329	0.91
H -8.366	-8.499	3.243
H -7.462	-7.069	2.697
H -8.734	-7.767	1.679
H -5.042	-9.872	2.328
H -5.34	-8.309	3.107
H -6.264	-9.729	3.612
N -5.981	-12.015	0.589
C -5.189	-12.881	-0.275
C -5.093	-14.281	0.337
O -5.6	-14.52	1.433
C -3.801	-12.262	-0.505
H -6.093	-12.332	1.551
H -5.69	-12.977	-1.237
H -3.901	-11.27	-0.943
H -3.253	-12.184	0.433
H -3.238	-12.883	-1.198
N -4.434	-15.206	-0.358
C -4.128	-16.541	0.146
C -2.7	-16.875	-0.28
O -2.295	-16.562	-1.402
C -5.124	-17.604	-0.388
C -6.601	-17.194	-0.19
C -4.847	-18.955	0.299
C -7.604	-18.216	-0.737
H -4.07	-14.956	-1.275
H -4.182	-16.53	1.236
H -4.951	-17.724	-1.46
H -6.8	-17.032	0.87
H -6.782	-16.261	-0.719
H -5.507	-19.728	-0.09
H -3.831	-19.286	0.09
H -4.981	-18.866	1.378
H -7.668	-19.079	-0.075
H -8.59	-17.757	-0.803
H -7.29	-18.543	-1.729
N -1.959	-17.532	0.612
H -2.382	-17.776	1.502
H -7.931054421768707	-10.777721088435374	1.8335510204081635
H -1.0618163265306122	-17.946938775510205	0.4204897959183673
