8

C 0.590045491	0.48960859	1.6384866619
C -0.590045491	-0.48960859	1.6384866619
H -1.1618670967	-0.3041048528	2.5473108434
F -0.0474806051	-1.7469549818	1.7520844602
F 0.0474806051	1.7469549818	1.7520844602
H 1.1618670967	0.3041048528	2.5473108434
H 1.2458071233637584	0.43702813708456373	0.7766731333758388
H -1.2458071233637584	-0.43702813708456373	0.7766731333758388
