12

H -1.3843899459	3.6280595629	-0.4065008216
H -3.4742834618	-0.7458378959	0.4447248037
C -1.6322793115	0.2699612159	0.0204034971
C -1.0407434412	1.5096142349	-0.1965792745
C -3.785567178	1.3479956081	0.2187184645
C -3.1906408238	2.5892155196	-0.0359090264
C -1.8294378934	2.6583157673	-0.2331838894
C -3.0171444684	0.2065901833	0.2460235401
H -1.0056775078835616	-0.5869319421602741	0.05433352958219178
H 0.0036791314389261753	1.5709005249348993	-0.3209979229026846
H -4.791445255801439	1.3924031606007194	0.37362087386402876
H -3.747551197141007	3.4267990207971226	-0.06188534051223022
