8

C -2.8440300471	-0.5221429056	0.5810462176
C -2.6247854305	1.0190805388	0.6124371049
H -2.7818509295	-0.9788785621	1.5704824778
H -3.8263853289	-0.7703302922	0.1739590037
H -2.450355602	1.4018577063	1.6195990627
H -3.4939006421	1.5466586994	0.2140394706
H -2.056765067732237	-0.868711607156579	-0.07965320827368427
H -1.7644023229065788	1.1567358262782896	-0.03327778086513156
