12

C 2.7749354354	0.8871136608	0.1976207037
C 3.6533270714	1.457465657	1.1194161671
C 4.7110366753	2.2522705917	0.6987533721
C 4.9141039925	2.4871050642	-0.6526485526
C 4.0542603837	1.9148757208	-1.5810384932
C 3.0014360104	1.1174335195	-1.1611070614
H 3.5190812007	1.2641678997	2.1747391948
H 5.382875263	2.6801440023	1.4313724671
H 5.7397705064	3.1041685076	-0.9815712921
H 4.2040313542	2.0897238552	-2.6384019119
H 2.3405702608	0.6782825294	-1.8950901859
H 1.9475165881726026	0.29326872991780817	0.5144872163027397
