14

H -4.1742959903	-0.8225623212	-2.2330940909
H -5.8677001341	0.9665661637	-2.5776658224
H -5.2469060225	3.3276980157	-2.1790126515
H -2.955248373	3.8919534992	-1.4430672019
H -1.2847449789	2.098759573	-1.1029399405
N -0.6469681404	-0.2942171309	-1.0712442987
N -1.7571218698	-0.5701176216	-1.4876864154
C -2.6410231089	0.5327400788	-1.6490648667
C -3.9255872827	0.2157810817	-2.0647659502
C -4.866831563	1.2195678599	-2.2548803251
C -4.5183276485	2.5415943721	-2.0307006634
C -3.2273336218	2.8591045967	-1.6155981388
C -2.2875317385	1.8628870574	-1.4232636706
H -0.01327675934166661	-1.0715825570416668	-0.9791716537624999
