41

H -5.033	-12.433	5.637
H -5.296	-14.845	7.181
H -7.125	-13.113	6.296
H -7.147	-14.216	4.921
H -7.226	-15.448	7.389
N -4.001	-15.028	4.324
C -3.429	-15.872	3.273
C -4.475	-16.247	2.224
O -4.406	-17.311	1.604
C -2.793	-17.132	3.876
C -1.643	-16.835	4.824
C -0.929	-18.089	5.271
O 0.012	-18.548	4.623
N -1.374	-18.656	6.38
H -3.659	-14.113	4.432
H -2.655	-15.299	2.782
H -3.549	-17.678	4.422
H -2.419	-17.754	3.074
H -0.934	-16.196	4.322
H -2.03	-16.326	5.697
H -2.13	-18.237	6.842
H -0.931	-19.473	6.692
N -5.429	-15.355	2.008
C -6.473	-15.583	1.028
C -7.772	-14.93	1.485
O -8.034	-15.216	2.851
H -5.43	-14.518	2.523
H -6.62	-16.649	0.933
H -7.695	-13.861	1.366
H -8.592	-15.3	0.889
H -7.914	-16.164	3.012
C -3.436	-13.1	6.625
O -2.89	-14.009	7.248
N -4.647	-13.209	6.094
C -5.434	-14.432	6.191
C -4.961	-15.448	5.15
O -5.458	-16.571	5.101
C -6.917	-14.122	5.973
O -7.747	-15.014	6.699
H -2.950201342281879	-12.164	6.482610738255033
H -6.165644295302013	-15.17869798657718	0.059973154362416015
