54

H -6.811	1.444	-5.485
H -6.932	4.329	-4.999
H -4.642	2.369	-5.24
H -4.391	4.108	-5.181
H -7.036	2.507	-3.213
H -3.042	3.972	-3.193
H -7.011	2.413	-0.76
H -3.021	3.884	-0.743
H -5.013	3.1	0.478
N -7.266	3.606	-7.789
C -7.216	3.897	-9.223
C -8.416	3.263	-9.942
C -9.74	3.871	-9.577
N -10.505	4.532	-10.51
C -10.39	3.883	-8.388
C -11.593	4.926	-9.871
N -11.564	4.556	-8.587
H -8.068	3.18	-7.415
H -6.312	3.453	-9.609
H -8.285	3.372	-11.008
H -8.454	2.209	-9.699
H -10.042	3.461	-7.453
H -12.403	5.473	-10.325
H -12.256	4.732	-7.913
C -9.263	1.033	-5.002
C -8.545	2.376	-5.13
O -9.16	3.439	-5.022
C -9.051	0.443	-3.6
C -9.754	1.178	-2.455
C -11.266	1.141	-2.637
C -9.36	0.568	-1.117
H -10.319	1.187	-5.159
H -9.398	-0.576	-3.612
H -7.991	0.438	-3.39
H -9.441	2.214	-2.453
H -11.74	1.65	-1.814
H -11.605	0.114	-2.671
H -11.528	1.634	-3.561
H -9.869	1.089	-0.322
H -8.293	0.661	-0.979
H -9.635	-0.477	-1.097
N -7.244	2.322	-5.382
C -6.429	3.524	-5.514
C -6.255	3.896	-6.98
O -5.228	4.444	-7.37
C -5.047	3.301	-4.88
C -5.043	3.246	-3.375
C -6.154	2.809	-2.672
C -3.916	3.629	-2.663
C -6.142	2.756	-1.293
C -3.903	3.579	-1.284
C -5.018	3.141	-0.6
H -8.924530612244897	0.3436870748299319	-5.732802721088436
H -7.1829664429530204	4.978489932885906	-9.418328859060402
