53

C 14.606	9.895	0.084
O 14.108	8.769	0.147
N 15.88	10.107	-0.222
C 16.806	9.005	-0.441
C 17.359	8.502	0.89
O 18.271	9.095	1.469
C 17.947	9.438	-1.365
O 17.446	9.928	-2.597
H 16.205	11.03	-0.313
H 16.257	8.204	-0.914
H 18.52	10.219	-0.888
H 18.591	8.593	-1.563
H 17.488	10.891	-2.594
N 16.785	7.42	1.38
C 17.217	6.852	2.638
C 16.282	5.755	3.096
O 15.582	5.906	4.101
H 16.055	6.998	0.882
H 18.211	6.449	2.52
H 17.239	7.632	3.386
N 16.252	4.661	2.341
C 15.39	3.529	2.662
C 15.799	2.877	3.981
O 16.965	2.922	4.373
C 15.412	2.457	1.55
C 14.887	3.026	0.243
C 16.814	1.888	1.361
H 16.826	4.611	1.548
H 14.378	3.901	2.756
H 14.757	1.651	1.851
H 14.596	2.22	-0.416
H 15.661	3.612	-0.227
H 14.034	3.652	0.445
H 16.781	1.071	0.655
H 17.187	1.526	2.308
H 17.47	2.66	0.99
N 14.836	2.271	4.665
C 15.101	1.607	5.929
C 14.234	2.207	7.042
C 14.902	3.326	7.777
N 14.607	3.594	9.093
C 15.836	4.207	7.344
C 15.364	4.623	9.431
N 16.124	5.026	8.403
H 13.918	2.259	4.304
H 16.144	1.754	6.171
H 13.322	2.591	6.611
H 13.993	1.435	7.758
H 16.265	4.26	6.353
H 15.371	5.079	10.409
H 16.765	5.772	8.407
H 14.009919463087249	10.765389261744966	0.23685906040268456
H 14.908543624161075	0.5355637583892616	5.831335570469799
