49

C -4.033	9.243	5.535
O -5.076	9.886	5.617
N -2.879	9.783	5.174
C -2.775	11.198	4.847
C -3.403	11.487	3.489
O -4.15	12.454	3.326
C -1.305	11.665	4.844
C -0.623	11.261	6.152
C -1.23	13.173	4.641
C 0.861	11.552	6.173
H -2.077	9.217	5.123
H -3.306	11.758	5.605
H -0.8	11.189	4.019
H -1.081	11.797	6.97
H -0.757	10.201	6.302
H -1.696	13.438	3.702
H -0.197	13.485	4.631
H -1.747	13.669	5.45
H 1.347	10.981	5.397
H 1.273	11.279	7.133
H 1.022	12.605	5.998
N -3.111	10.626	2.521
C -3.638	10.775	1.172
C -5.157	10.651	1.161
O -5.845	11.352	0.419
C -3.018	9.736	0.238
C -1.668	10.158	-0.321
C -1.817	11.303	-1.305
N -0.531	11.894	-1.678
C -0.407	12.965	-2.462
N -1.488	13.558	-2.956
N 0.799	13.448	-2.75
H -2.521	9.867	2.721
H -3.373	11.763	0.824
H -2.886	8.809	0.782
H -3.692	9.568	-0.588
H -1.037	10.476	0.494
H -1.213	9.316	-0.824
H -2.3	10.927	-2.195
H -2.437	12.065	-0.858
H 0.279	11.47	-1.321
H -1.402	14.358	-3.549
H -2.403	13.208	-2.729
H 1.622	13.01	-2.37
H 0.896	14.253	-3.34
N -5.675	9.761	1.988
H -5.074	9.224	2.555
H -4.017644295302014	8.203	5.763939597315437
H -6.670714285714286	9.618061224489795	2.051142857142857
