48

H -11.58	9.325	0.823
C -7.11	9.555	2.079
C -7.633	10.063	3.415
O -8.349	9.363	4.13
C -7.445	8.075	1.9
C -7.208	7.58	0.499
C -8.196	7.696	-0.467
C -5.993	7.013	0.146
C -7.974	7.255	-1.761
C -5.767	6.57	-1.143
C -6.758	6.691	-2.099
H -7.573	10.121	1.285
H -6.833	7.494	2.57
H -8.489	7.918	2.143
H -9.147	8.135	-0.204
H -5.219	6.918	0.895
H -8.751	7.352	-2.507
H -4.814	6.131	-1.402
H -6.581	6.346	-3.107
N -7.256	11.291	3.748
C -7.681	11.894	5.001
C -9.077	12.476	4.925
O -9.734	12.659	5.948
H -6.67	11.791	3.14
H -7.657	11.144	5.777
H -6.989	12.682	5.259
N -9.536	12.771	3.716
C -10.864	13.335	3.527
C -11.905	12.228	3.428
O -13.048	12.394	3.86
C -10.891	14.197	2.266
O -9.715	14.983	2.169
H -8.973	12.598	2.931
H -11.089	13.955	4.381
H -10.957	13.563	1.396
H -11.748	14.852	2.298
H -9.362	15.132	3.056
N -11.505	11.101	2.852
C -12.4	9.965	2.698
C -12.549	9.598	1.22
C -13.503	8.44	1.008
O -14.701	8.686	0.739
O -13.065	7.28	1.098
H -10.58	11.027	2.525
H -13.369	10.247	3.084
H -12.929	10.452	0.68
H -6.065476190476191	9.704945578231293	2.0127619047619048
H -12.032322147651007	9.102536912751678	3.2645973154362418
