40

N -12.471	8.514	4.668
C -12.075	7.386	5.515
C -12.591	6.055	4.982
O -12.112	4.989	5.373
C -12.723	7.715	6.859
C -13.907	8.549	6.526
C -13.548	9.322	5.286
H -11.004	7.332	5.629
H -13.02	6.8	7.357
H -12.038	8.274	7.475
H -14.76	7.912	6.34
H -14.113	9.229	7.334
H -14.406	9.4	4.631
H -13.185	10.307	5.55
N -13.547	6.134	4.065
C -14.153	4.952	3.471
C -13.121	4.134	2.704
O -13.045	2.911	2.849
C -15.298	5.353	2.556
H -13.846	7.019	3.769
H -14.553	4.348	4.27
H -16.051	5.871	3.129
H -15.731	4.472	2.108
H -14.928	6.004	1.78
N -12.326	4.817	1.888
C -11.292	4.161	1.102
C -10.688	5.124	0.055
O -11.742	5.846	-0.603
C -9.878	4.361	-0.983
H -12.454	5.793	1.8
H -11.75	3.338	0.579
H -10.035	5.824	0.56
H -12.166	6.452	0.035
H -9.212	5.039	-1.501
H -10.548	3.904	-1.696
H -9.301	3.593	-0.492
C -11.888	8.764	3.487
O -10.968	8.066	3.055
H -12.24536912751678	9.602281879194631	2.936288590604027
H -10.504221476510068	3.767469798657718	1.7597986577181208
