56

C 26.974	25.899	44.902
C 26.739	25.059	43.629
O 25.642	24.55	43.38
C 25.709	25.927	45.796
O 25.857	26.837	46.869
C 25.401	24.575	46.45
H 27.761	25.396	45.462
H 24.858	26.249	45.195
H 25.012	26.857	47.353
H 25.182	23.817	45.7
H 26.25	24.242	47.045
H 24.523	24.667	47.088
N 27.772	24.924	42.79
C 27.722	24.128	41.534
C 29.09	23.538	41.176
O 29.197	22.362	40.825
C 27.239	24.964	40.324
O 26.22	25.884	40.664
C 26.682	24.076	39.208
H 28.642	25.359	43.057
H 27.038	23.292	41.674
H 28.082	25.534	39.93
H 25.996	26.389	39.862
H 27.468	23.424	38.821
H 25.865	23.463	39.591
H 26.315	24.695	38.389
N 30.151	24.329	41.35
C 31.553	23.972	41.097
C 32.338	23.726	42.403
O 33.559	23.896	42.458
C 32.202	25.037	40.194
C 32.132	26.475	40.742
O 32.027	27.399	39.899
O 32.174	26.697	41.976
H 29.984	25.286	41.633
H 31.584	23.032	40.545
H 33.243	24.77	40.014
H 31.695	24.998	39.226
N 31.639	23.317	43.468
C 32.249	22.849	44.717
C 32.192	21.322	44.877
O 32.85	20.764	45.754
C 31.556	23.556	45.891
C 32.228	23.265	47.23
O 31.595	22.859	48.192
N 33.525	23.447	47.342
H 30.633	23.271	43.38
H 33.308	23.121	44.721
H 31.563	24.627	45.705
H 30.517	23.223	45.947
H 33.963	23.251	48.228
H 34.055	23.887	46.604
N 31.449	20.625	44.01
H 30.967	21.133	43.282
H 27.30955782312925	26.898394557823128	44.66543537414966
H 31.32895918367347	19.616795918367348	44.038448979591834
