54

H 29.861	19.264	42.387
H 29.955	17.708	43.18
H 28.92	18.904	45.269
H 28.912	21.212	44.493
H 28.0	20.747	43.033
H 27.257	20.632	44.641
H 27.3	18.269	42.777
H 27.853	17.105	44.002
H 26.674	18.342	44.441
N 33.72	18.954	43.652
C 34.992	18.316	43.266
C 35.26	16.983	44.018
O 35.532	15.98	43.351
C 36.188	19.298	43.403
C 35.88	20.787	43.115
C 37.353	18.835	42.516
C 35.254	21.095	41.747
H 33.77	19.827	44.158
H 34.899	18.07	42.209
H 36.55	19.257	44.429
H 35.223	21.173	43.898
H 36.815	21.346	43.192
H 37.66	17.826	42.792
H 37.061	18.837	41.466
H 38.205	19.502	42.65
H 35.834	20.652	40.942
H 34.224	20.741	41.696
H 35.258	22.181	41.599
N 35.15	16.905	45.369
C 35.418	15.665	46.108
C 34.316	14.606	45.936
O 34.602	13.442	45.655
C 35.553	16.096	47.575
C 34.743	17.383	47.686
C 34.908	18.005	46.309
H 36.36	15.231	45.776
H 35.157	15.344	48.255
H 36.602	16.304	47.794
H 33.691	17.153	47.858
H 35.123	18.039	48.471
H 33.995	18.548	46.081
H 35.759	18.684	46.333
N 33.049	15.013	46.057
H 32.903	15.976	46.313
C 31.276	19.172	44.051
C 32.51	18.398	43.522
O 32.385	17.296	42.999
C 29.942	18.782	43.361
C 28.691	19.08	44.219
C 28.185	20.517	44.081
C 27.551	18.138	43.829
H 31.198	18.893	45.101
H 31.40192517006803	20.229625850340135	44.02115646258503
H 32.22189795918367	14.428755102040816	45.89185714285715
