72

C 31.857	14.171	45.819
C 31.87	13.557	44.419
O 31.585	12.363	44.305
C 30.526	14.915	46.111
C 30.647	16.423	45.905
C 29.333	14.448	45.254
H 31.9	13.331	46.515
H 30.272	14.755	47.157
H 31.32	16.867	46.639
H 31.021	16.589	44.904
H 29.673	16.896	46.016
H 29.492	14.688	44.201
H 29.192	13.373	45.362
H 28.419	14.95	45.576
N 32.244	14.315	43.373
C 32.403	13.734	42.039
C 33.41	12.596	42.075
O 33.06	11.49	41.69
C 32.809	14.756	40.964
C 31.702	15.036	39.968
C 31.042	16.28	39.949
C 31.338	14.03	39.053
C 30.025	16.521	39.005
C 30.321	14.265	38.109
C 29.667	15.517	38.077
O 28.693	15.758	37.155
H 32.442	15.301	43.502
H 31.445	13.297	41.748
H 33.167	15.677	41.415
H 33.651	14.368	40.391
H 31.318	17.052	40.654
H 31.841	13.072	39.072
H 29.519	17.476	38.977
H 30.047	13.491	37.403
H 28.554	14.994	36.567
N 34.609	12.817	42.623
C 35.621	11.772	42.736
C 35.114	10.493	43.435
O 35.52	9.403	43.051
H 34.826	13.744	42.962
H 35.922	11.489	41.726
N 34.194	10.591	44.403
C 33.599	9.425	45.075
C 32.769	8.543	44.129
O 33.116	7.383	43.882
C 32.735	9.894	46.251
O 32.424	8.794	47.087
H 33.887	11.515	44.676
H 34.406	8.808	45.475
H 33.28	10.645	46.825
H 31.814	10.344	45.88
H 31.845	9.108	47.809
N 31.694	9.093	43.549
C 30.824	8.369	42.604
C 29.517	9.143	42.309
C 29.784	10.524	41.659
C 28.686	9.237	43.604
C 28.561	11.425	41.481
H 31.477	10.06	43.758
H 30.546	7.415	43.061
H 28.936	8.549	41.601
H 30.51	11.073	42.255
H 30.21	10.368	40.666
H 28.563	8.244	44.042
H 29.178	9.886	44.328
H 27.693	9.629	43.388
H 27.783	10.897	40.929
H 28.183	11.741	42.453
H 28.856	12.316	40.919
H 36.488263157894735	12.165506578947369	43.23721052631579
H 32.7246462585034	14.783884353741497	45.9922380952381
H 31.35038255033557	8.122684563758389	41.67259731543624
