73

C 35.829	6.4	41.236
C 35.065	5.065	41.268
O 35.551	4.087	40.71
C 36.608	6.635	42.537
H 36.558	6.329	40.426
H 37.226	7.53	42.442
H 35.917	6.754	43.371
H 37.26	5.788	42.733
N 33.861	5.006	41.851
C 33.065	3.772	41.873
C 32.498	3.386	40.486
O 32.522	2.21	40.113
C 31.96	3.923	42.924
H 33.486	5.835	42.295
H 33.712	2.952	42.19
H 32.407	4.144	43.896
H 31.282	4.732	42.648
H 31.4	2.991	43.0
N 32.028	4.364	39.701
C 31.496	4.167	38.337
C 32.614	3.823	37.353
O 32.535	2.795	36.691
C 30.681	5.41	37.903
C 30.398	5.501	36.397
C 29.324	5.399	38.627
H 32.018	5.306	40.079
H 30.821	3.311	38.343
H 31.225	6.309	38.187
H 31.323	5.68	35.849
H 29.933	4.582	36.041
H 29.73	6.341	36.2
H 28.75	4.519	38.334
H 29.47	5.378	39.707
H 28.758	6.294	38.375
N 33.681	4.624	37.288
C 34.838	4.441	36.392
C 35.558	3.111	36.644
O 35.907	2.428	35.681
C 35.801	5.643	36.526
C 37.133	5.469	35.807
C 35.166	6.919	35.947
H 33.699	5.434	37.902
H 34.483	4.419	35.363
H 36.039	5.793	37.578
H 37.694	4.639	36.239
H 36.969	5.289	34.745
H 37.725	6.376	35.94
H 35.037	6.827	34.868
H 34.19	7.099	36.397
H 35.809	7.773	36.153
N 35.731	2.688	37.904
C 36.297	1.363	38.239
C 35.432	0.224	37.693
O 35.954	-0.67	37.031
C 36.502	1.216	39.763
C 36.673	-0.231	40.245
C 37.76	1.988	40.19
H 35.448	3.298	38.665
H 37.272	1.273	37.762
H 35.628	1.622	40.271
H 35.753	-0.794	40.093
H 37.488	-0.713	39.707
H 36.888	-0.236	41.314
H 38.649	1.511	39.779
H 37.721	3.016	39.83
H 37.829	2.003	41.275
N 34.114	0.249	37.916
C 33.208	-0.772	37.368
H 33.718	1.001	38.467
H 33.543	-1.76	37.686
H 32.2	-0.605	37.756
H 35.187000000000005	7.227612244897959	41.03073469387755
H 33.16419463087248	-0.7569194630872483	36.26568456375839
