49

H 34.64	-4.326	34.968
H 35.468	-5.806	34.434
N 33.943	-3.424	32.188
C 32.896	-3.506	31.164
C 31.651	-2.742	31.635
C 30.519	-2.786	30.628
C 29.734	-3.949	30.508
C 30.281	-1.688	29.774
C 28.707	-4.013	29.547
C 29.262	-1.752	28.805
C 28.467	-2.914	28.691
O 27.493	-2.996	27.743
H 33.834	-2.751	32.933
H 32.617	-4.554	31.034
H 31.302	-3.176	32.574
H 31.916	-1.703	31.83
H 29.927	-4.8	31.15
H 30.89	-0.797	29.853
H 28.106	-4.906	29.448
H 29.087	-0.913	28.145
H 27.425	-2.182	27.217
C 34.678	0.074	33.173
O 34.629	-0.418	32.051
N 35.82	0.131	33.878
C 37.118	-0.351	33.359
C 37.054	-1.82	32.941
O 37.675	-2.2	31.955
C 38.284	-0.094	34.351
C 38.682	-1.29	35.237
C 39.543	0.335	33.59
H 35.804	0.612	34.773
H 37.321	0.222	32.453
H 38.005	0.733	35.007
H 37.814	-1.698	35.745
H 39.143	-2.078	34.64
H 39.398	-0.967	35.993
H 39.845	-0.447	32.892
H 39.348	1.254	33.04
H 40.353	0.519	34.295
N 36.277	-2.634	33.663
C 36.049	-4.036	33.342
C 35.033	-4.205	32.194
O 35.255	-5.016	31.293
C 35.589	-4.741	34.625
H 35.805	-2.242	34.465
H 36.989	-4.488	33.022
H 36.34	-4.607	35.406
H 33.76991946308725	0.45161073825503356	33.600167785234895
H 33.22418120805369	-3.1347315436241607	30.179456375838924
