73

C 33.353	-2.989	29.793
O 33.301	-3.735	28.817
N 33.832	-1.74	29.714
C 34.332	-1.104	28.483
C 35.464	-1.932	27.886
O 35.412	-2.233	26.697
C 34.787	0.348	28.76
C 33.597	1.248	29.141
C 35.561	1.009	27.607
C 32.551	1.569	28.062
H 33.888	-1.205	30.576
H 33.529	-1.088	27.745
H 35.463	0.323	29.617
H 33.08	0.774	29.967
H 34.004	2.196	29.488
H 36.474	0.458	27.378
H 34.933	1.053	26.724
H 35.844	2.024	27.885
H 32.996	2.202	27.293
H 32.153	0.657	27.616
H 31.726	2.121	28.516
N 36.439	-2.356	28.7
C 37.499	-3.239	28.226
C 36.917	-4.525	27.625
O 37.212	-4.836	26.477
C 38.484	-3.546	29.353
H 36.418	-2.095	29.675
H 38.047	-2.725	27.434
H 38.927	-2.617	29.72
H 37.971	-4.061	30.165
H 39.28	-4.184	28.973
N 36.035	-5.247	28.324
C 35.466	-6.484	27.782
C 34.644	-6.265	26.497
O 34.774	-7.037	25.545
C 34.661	-7.206	28.873
C 34.47	-8.693	28.633
C 35.589	-9.515	28.384
C 33.189	-9.273	28.716
C 35.429	-10.897	28.193
C 33.03	-10.662	28.54
C 34.149	-11.473	28.276
H 35.781	-4.964	29.266
H 36.306	-7.116	27.503
H 35.195	-7.118	29.819
H 33.694	-6.714	28.99
H 36.582	-9.089	28.348
H 32.324	-8.661	28.937
H 36.293	-11.519	27.998
H 32.047	-11.11	28.617
H 34.029	-12.542	28.143
N 33.872	-5.173	26.415
C 33.124	-4.758	25.212
C 32.191	-3.575	25.562
C 30.705	-3.955	25.658
C 30.377	-5.141	26.59
C 30.139	-6.481	25.873
N 28.955	-6.428	24.967
H 33.805	-4.589	27.245
H 32.53	-5.597	24.864
H 32.495	-3.119	26.505
H 32.278	-2.798	24.802
H 30.173	-3.078	26.029
H 30.334	-4.152	24.652
H 31.169	-5.26	27.33
H 29.465	-4.908	27.133
H 31.033	-6.764	25.313
H 29.977	-7.251	26.636
H 28.116	-6.174	25.471
H 29.085	-5.752	24.228
H 28.785	-7.324	24.53
H 33.034020134228186	-3.3498590604026846	30.749939597315436
H 33.776053691275166	-4.517429530201342	24.359590604026845
