48

C 39.972	-4.41	25.317
C 42.605	-4.894	26.183
C 40.823	-3.34	25.623
C 42.14	-3.576	26.057
H 38.828	-6.515	22.92
H 37.668	-7.159	25.606
H 38.326	-8.49	24.709
H 40.588	-9.045	25.53
H 42.737	-7.806	26.181
H 38.979	-4.191	24.968
H 43.615	-5.093	26.514
H 40.45	-2.336	25.509
H 42.799	-2.755	26.291
N 35.855	-7.981	22.959
C 34.986	-8.881	22.193
C 34.568	-8.313	20.816
O 34.191	-9.095	19.938
C 33.751	-9.263	23.04
C 33.797	-10.691	23.568
O 34.223	-11.627	22.903
N 33.339	-10.92	24.778
H 35.475	-7.511	23.772
H 35.556	-9.785	21.976
H 33.633	-8.572	23.874
H 32.847	-9.178	22.435
H 33.363	-11.864	25.127
H 33.004	-10.161	25.349
N 34.626	-6.985	20.623
C 34.353	-6.294	19.345
C 35.257	-6.777	18.194
O 34.721	-7.33	17.203
C 34.468	-4.777	19.532
O 34.027	-4.158	18.331
H 34.895	-6.417	21.414
H 33.323	-6.508	19.056
H 33.832	-4.458	20.362
H 35.505	-4.512	19.757
H 34.34	-3.234	18.285
C 37.931	-6.762	23.486
C 37.142	-7.776	22.65
O 37.696	-8.361	21.717
C 38.371	-7.406	24.812
C 39.761	-7.064	25.263
C 40.718	-7.968	25.568
C 40.39	-5.751	25.459
N 41.884	-7.32	25.924
C 41.734	-5.952	25.891
H 37.3727074829932	-5.865965986394557	23.667972789115648
