68

C 45.77	10.614	42.12
C 44.428	10.883	41.473
O 44.352	10.829	40.257
C 45.733	9.272	42.878
C 46.981	8.413	42.726
C 48.263	8.997	42.737
C 46.86	7.02	42.545
C 49.414	8.203	42.586
C 48.008	6.218	42.389
C 49.293	6.809	42.413
O 50.412	6.045	42.268
H 46.487	10.495	41.313
H 45.518	9.432	43.934
H 44.9	8.686	42.484
H 48.364	10.064	42.867
H 45.881	6.558	42.526
H 50.396	8.654	42.604
H 47.911	5.149	42.255
H 50.201	5.101	42.162
N 43.394	11.269	42.226
C 42.09	11.571	41.633
C 42.167	12.547	40.434
O 41.426	12.386	39.466
C 41.147	12.088	42.719
S 39.492	12.385	42.056
H 43.506	11.307	43.23
H 41.673	10.636	41.253
H 41.081	11.343	43.515
H 41.544	13.013	43.143
N 43.106	13.501	40.447
C 43.36	14.415	39.328
C 44.07	13.746	38.133
O 43.503	13.677	37.038
C 44.183	15.602	39.838
O 44.111	16.672	38.913
H 43.722	13.545	41.247
H 42.404	14.799	38.972
H 43.782	15.929	40.8
H 45.221	15.304	39.98
H 44.635	17.417	39.267
N 45.288	13.215	38.319
C 46.066	12.572	37.235
C 36.853	12.331	43.448
S 38.296	11.267	43.242
C 45.38	11.316	36.694
C 47.521	12.242	37.656
H 37.083	13.316	43.041
H 36.636	12.44	44.51
H 45.695	13.256	39.247
H 46.12	13.273	36.4
O 45.358	11.106	35.486
C 47.572	11.298	38.881
C 48.3	13.553	37.862
H 47.998	11.72	36.823
C 48.937	11.109	39.549
H 49.357	13.342	38.025
H 46.894	11.678	39.634
H 47.215	10.309	38.587
H 48.223	14.173	36.966
N 44.778	10.51	37.568
H 47.904	14.104	38.715
H 49.66	10.741	38.821
H 49.278	12.046	39.983
H 48.838	10.377	40.352
H 44.816	10.772	38.547
H 46.07061904761905	11.443068027210884	42.72269387755102
H 44.2645306122449	9.669714285714285	37.3334693877551
H 35.98573684210527	11.937493421052631	42.946789473684206
