49

H 45.769	6.54	21.87
H 47.622	2.478	24.082
H 47.847	5.485	20.999
H 49.374	3.795	21.243
C 41.609	5.066	27.443
O 41.698	4.296	26.497
N 40.421	5.463	27.926
C 39.128	4.989	27.384
C 39.043	5.199	25.875
O 38.683	4.268	25.162
C 37.929	5.644	28.112
C 36.603	5.565	27.336
C 37.704	4.951	29.462
H 40.418	6.084	28.73
H 39.065	3.912	27.545
H 38.151	6.698	28.288
H 36.656	6.158	26.424
H 36.377	4.53	27.079
H 35.793	5.969	27.942
H 37.431	3.909	29.302
H 38.611	4.991	30.062
H 36.904	5.452	30.004
N 39.404	6.383	25.375
C 39.429	6.646	23.939
C 40.609	5.945	23.229
O 40.418	5.371	22.155
C 39.446	8.164	23.724
H 39.694	7.112	26.012
H 38.509	6.259	23.495
H 38.581	8.614	24.217
H 40.36	8.593	24.136
H 39.391	8.382	22.657
N 41.812	5.945	23.822
C 43.013	5.354	23.215
C 44.259	5.766	24.01
C 45.538	5.131	23.494
C 46.059	3.978	24.117
C 46.18	5.668	22.362
C 47.224	3.368	23.614
C 47.355	5.071	21.868
C 47.883	3.918	22.495
O 49.005	3.319	22.006
H 41.912	6.417	24.713
H 43.114	5.743	22.199
H 44.364	6.852	23.966
H 44.126	5.486	25.054
H 45.562	3.552	24.978
H 42.514288590604025	5.445006711409396	27.867375838926172
H 42.96704026845637	4.2574295302013425	23.142469798657718
