51

N 42.766	3.122	24.236
C 42.663	1.658	24.31
C 41.543	1.154	23.408
O 41.749	0.197	22.661
C 42.448	1.212	25.777
C 43.755	1.265	26.592
C 41.806	-0.167	25.901
C 44.818	0.203	26.269
H 42.634	3.644	25.096
H 43.588	1.218	23.937
H 41.739	1.891	26.244
H 44.207	2.243	26.442
H 43.498	1.166	27.646
H 40.754	-0.11	25.619
H 42.323	-0.859	25.239
H 41.857	-0.524	26.93
H 44.434	-0.798	26.471
H 45.13	0.274	25.229
H 45.689	0.368	26.907
N 40.381	1.81	23.446
C 39.272	1.463	22.573
C 39.656	1.576	21.1
O 39.49	0.613	20.356
C 38.066	2.345	22.902
H 40.272	2.582	24.091
H 39.027	0.418	22.756
H 37.777	2.2	23.945
H 38.309	3.393	22.728
H 37.237	2.065	22.259
N 40.231	2.707	20.681
C 40.671	2.887	19.302
C 41.075	4.35	19.081
C 41.075	4.776	17.625
C 39.915	4.597	16.843
C 42.208	5.393	17.06
C 39.892	5.015	15.502
C 42.18	5.822	15.719
C 41.023	5.632	14.941
H 40.357	3.473	21.334
H 39.82	2.661	18.662
H 40.363	4.996	19.59
H 42.058	4.521	19.523
H 39.03	4.15	17.273
H 43.096	5.554	17.656
H 38.997	4.874	14.909
H 43.044	6.308	15.288
H 41.0	5.967	13.91
C 42.949	3.827	23.114
O 43.046	3.297	22.011
H 42.9936711409396	4.892825503355705	23.1844966442953
H 41.474577181208055	2.18755033557047	19.016906040268456
