23

C -0.1436967346	0.735386953	1.2649482429
C 0.3367157801	1.4803958075	0.0
C -0.1436967346	0.735386953	-1.2649482429
C 1.8592420668	1.6295797043	0.0
O -0.1250364969	2.8128625102	0.0
C -0.1539328665	1.5228529411	-2.5432697979
C -1.452685035	1.1318386519	-1.898806032
C -1.452685035	1.1318386519	1.898806032
C -0.1539328665	1.5228529411	2.5432697979
H 2.3672075953	0.6701117428	0.0
H 2.1698330419	2.189710046	-0.8822675841
H 2.1698330419	2.189710046	0.8822675841
H -1.067797266	2.8287276287	0.0
H -2.0283569186	0.3415979633	2.3612533151
H -2.0672270473	1.9121934451	1.4699020551
H 0.1332966173	2.5614271059	2.4655516402
H 0.1275941027	1.0556351947	3.4758629908
H 0.1275941027	1.0556351947	-3.4758629908
H 0.1332966173	2.5614271059	-2.4655516402
H -2.0672270473	1.9121934451	-1.4699020551
H -2.0283569186	0.3415979633	-2.3612533151
H 0.09640532492894738	-0.30982724029802633	1.2631597245953947
H 0.09640532492894738	-0.30982724029802633	-1.2631597245953947
