25

N -2.3154041058	-0.565376043	0.0657305596
C 3.1466583252	3.0227934355	0.0423285116
C 1.8948383153	2.57695255	-0.0774263752
C 0.68303284	3.3066769212	0.2857559334
C -0.5433210689	2.7749992244	0.3002845142
C -0.8831172978	1.4049770277	-0.1116607394
C -1.9582590387	0.7784044738	0.3460067051
C -3.6514816127	-0.8852155729	-0.1022444556
O -4.0617760121	-1.9898119309	-0.2691551438
O -4.4191881324	0.1859565829	-0.0600963181
C -5.8229840876	-0.0177630147	-0.2390802599
C -6.4877793887	1.3367017779	-0.1690400957
H 3.3319874539	4.0488433561	0.34548329
H 1.7626206229	1.5686126625	-0.4430328995
H 0.8065625047	4.3305858572	0.6191181835
H -1.3623275234	3.3816286109	0.6700971029
H -0.2234567615	0.9000369279	-0.7995934729
H -2.6495442624	1.2879685091	0.9993421069
H -6.1829356123	-0.6878497699	0.5392688562
H -5.9859629631	-0.500122846	-1.2006931674
H -6.3134272292	1.8067354183	0.8000793847
H -7.5643886891	1.2229768757	-0.3083976162
H -6.1054557929	1.9972276567	-0.94844302
H -1.6827020172874998	-1.3361524720791667	0.06777315769583334
H 3.9790995656438355	2.414957590338356	-0.15202418969315068
