36

C         0.1005477695   -0.4541704565    0.8242599319
C         0.8106722205    0.1372936716   -0.4184182071
C        -0.1377021914    1.2811524208   -0.8153329149
C        -1.1851061105    1.3558322955    0.3448257605
C        -2.4723583047    0.5304417251    0.0002128563
C        -0.9623938050   -1.4015592161    0.2578229953
O        -0.5616363955    0.6509570914    1.3809114794
C        -1.4830695053    2.7704404726    0.8147505598
C         0.9563584925   -1.0542725821    1.9244972183
C        -2.1389205002   -0.9449166064   -0.1424969912
N         0.7287562421    2.4615730165   -0.8455420075
N         1.8573471349    2.1881318614   -0.4985598424
N         2.0216380344    0.8837411473   -0.1487352826
C         4.8800609370   -1.4622489836   -0.4521797324
C         5.9527366930   -0.6223075987   -0.2166627409
C         5.7077942018    0.7228116933    0.0371035302
C         4.4181929967    1.2208934053    0.0588026108
C         3.3374397292    0.3703890249   -0.1878345279
C         3.5773993304   -0.9752623028   -0.4418633444
H         0.9581751468   -0.6024774058   -1.2016073230
H        -0.5981762958    1.1848803098   -1.7903947450
Cl       -3.2206202828    1.1632874124   -1.5032181349
Cl       -3.6959949758    0.6643970426    1.3139231583
Cl       -0.5077711535   -3.0616338821    0.0567004689
H        -1.9654206302    3.3494488455    0.0299116523
H        -0.5477818123    3.2555356511    1.0761454179
H        -2.1214116357    2.7478258083    1.6918617124
H         1.5533356969   -1.8915141323    1.5775281819
H         0.3118854678   -1.3907739353    2.7362640848
H         1.6172813466   -0.2778933897    2.3030258338
Cl       -3.3762071800   -1.9733775709   -0.7750909519
H         5.0448889341   -2.5127869196   -0.6515684472
H         6.9639779629   -1.0044686649   -0.2271899701
H         6.5330137566    1.3964132269    0.2267119468
H         2.7654738114   -1.6606145184   -0.6300990571
H         4.2406528579    2.2654349297    0.2583174873
