17

H -0.0698108976	-2.5517627496	-0.6268418646
H -0.5268952831	-1.9404994289	0.9369100569
H -2.1169236779	-1.6734952252	-1.6405821518
H -2.509343637	-2.6348331445	-0.2264619152
H 2.5619762021	-0.6188296159	2.2082058848
H 0.8604786461	-0.1902728414	2.2581400224
C 0.2198677387	-0.4146859524	-0.4231440665
C 1.6458892006	-0.4160903551	0.2304612955
H 1.3565256017	-1.8489161172	1.8826512561
C -0.5659098946	-1.7179880768	-0.1270437318
C -2.0416518181	-1.6999031116	-0.5486517851
C 1.5984164487	-0.7964812514	1.7305310126
H 0.3846588489	-0.3914546687	-1.5095709027
H 2.266259090764474	-1.129070948056579	-0.3168821415046053
H 2.096596188580537	0.5885151517644296	0.18698857055771811
H -0.36146844699395986	0.4964357961161075	-0.23058196245302015
H -2.555200829925	-0.843200902981579	-0.1429251810473684
