8

H -4.1282125266	-0.4136463569	-1.6143750652
C -4.190907482	-0.2344775464	-0.5359169913
H -5.1247983921	-2.1683215209	-0.1684580332
H -6.2600987835	-0.8648475439	-0.5078864053
H -5.4841586749	-0.9596720363	1.0695629777
C -5.3226142212	-1.1067051877	-0.0002417845
H -3.191493625158553	-0.40935780802105265	-0.13915501183026313
H -4.347220527369737	0.8363187196532895	-0.38730920508092104
