24

C -0.0705161076	-1.4411662926	-0.1814541103
C -0.2400551275	-0.6839568623	-1.365130148
C 0.2400551275	0.6839568623	-1.365130148
C 0.0705161076	1.4411662926	-0.1814541103
C -0.0232208016	0.6939478731	1.0180173714
C 0.0232208016	-0.6939478731	1.0180173714
C -0.03464385	1.3540933524	2.3766475377
C 0.03464385	-1.3540933524	2.3766475377
O 1.0989657519	-0.995808774	3.0833091078
O -0.8016037718	-2.0755673083	2.8079740041
C 1.2075716697	-1.5136714859	4.3964507416
O -1.0989657519	0.995808774	3.0833091078
C -1.2075716697	1.5136714859	4.3964507416
O 0.8016037718	2.0755673083	2.8079740041
H 2.0847746692	-1.0411441817	4.8276398495
H 0.3211041421	-1.2795842263	4.9807544025
H 1.3369385808	-2.5945991579	4.3705955645
H -2.0847746692	1.0411441817	4.8276398495
H -1.3369385808	2.5945991579	4.3705955645
H -0.3211041421	1.2795842263	4.9807544025
H 0.17539325521879195	-2.5231304457382553	-0.15634063345167787
H -0.9276340918114094	-0.9934317435563759	-2.18966521624698
H 0.9276340918114094	0.9934317435563759	-2.18966521624698
H -0.17539325521879195	2.5231304457382553	-0.15634063345167787
