49

C -7.413	8.963	2.921
C -6.815	7.981	3.866
O -5.966	8.303	4.687
C -8.58	9.684	3.565
C -9.235	10.73	2.686
C -10.422	11.36	3.386
C -8.218	11.788	2.289
H -6.661	9.675	2.616
H -9.321	8.947	3.837
H -8.227	10.17	4.463
H -9.573	10.238	1.784
H -11.153	10.601	3.622
H -10.869	12.1	2.739
H -10.093	11.835	4.299
H -7.432	11.307	1.723
H -7.802	12.25	3.171
H -8.696	12.536	1.673
N -7.242	6.745	3.695
C -6.707	5.637	4.38
C -5.265	5.531	3.968
O -4.39	5.379	4.782
C -7.419	4.388	3.886
O -8.82	4.6	3.774
H -7.976	6.579	3.073
H -6.825	5.726	5.447
H -7.042	4.18	2.896
H -7.212	3.529	4.511
H -9.16	5.155	4.497
N -5.046	5.747	2.677
C -3.777	5.547	2.044
C -2.771	6.551	2.56
O -1.589	6.278	2.598
C -3.927	5.665	0.531
C -2.796	5.042	-0.222
S -2.706	3.281	0.129
C -4.251	2.713	-0.565
H -5.77	6.112	2.127
H -3.437	4.551	2.281
H -4.843	5.176	0.233
H -3.982	6.709	0.263
H -2.953	5.189	-1.281
H -1.87	5.505	0.083
H -4.336	1.644	-0.435
H -4.28	2.957	-1.617
H -5.07	3.205	-0.06
N -3.267	7.681	3.032
H -4.236	7.827	3.034
H -7.733272108843537	8.43091156462585	2.070095238095238
H -2.6799795918367346	8.400551020408162	3.404612244897959
