50

C -1.403	3.381	5.029
C 0.032	3.411	4.51
O 0.854	2.592	4.912
C -2.362	2.715	3.954
C -1.798	1.4	3.437
C -3.733	2.429	4.541
H -1.446	2.784	5.929
H -2.484	3.393	3.123
H -2.5	0.989	2.726
H -1.701	0.717	4.268
H -0.841	1.564	2.965
H -3.627	1.796	5.409
H -4.328	1.909	3.803
H -4.218	3.353	4.817
N 0.357	4.384	3.679
C 1.659	4.393	3.075
C 2.689	4.933	4.021
O 3.774	4.435	4.05
C 1.713	5.143	1.741
C 2.94	4.736	0.974
C 0.489	4.883	0.923
H -0.261	5.121	3.473
H 1.968	3.37	2.91
H 1.774	6.202	1.945
H 2.974	5.271	0.037
H 2.909	3.675	0.782
H 3.822	4.969	1.554
H -0.384	5.211	1.467
H 0.413	3.825	0.717
H 0.555	5.425	-0.009
N 2.33	5.902	4.843
C 3.28	6.431	5.824
C 3.638	5.342	6.84
O 4.774	5.249	7.325
C 2.75	7.712	6.526
C 3.715	8.189	7.597
C 2.558	8.81	5.504
H 1.426	6.274	4.795
H 4.182	6.671	5.275
H 1.793	7.501	6.979
H 4.668	8.42	7.146
H 3.845	7.409	8.333
H 3.316	9.072	8.073
H 1.834	8.492	4.768
H 3.501	9.003	5.013
H 2.211	9.707	5.994
N 2.683	4.483	7.102
H 1.806	4.636	6.685
H -1.729095238095238	4.346183673469388	5.339081632653062
H 2.830795918367347	3.6933673469387758	7.69734693877551
