53

C -0.312	7.296	-6.889
C 0.111	6.388	-8.041
O -0.719	5.855	-8.765
C -0.405	8.742	-7.397
C 0.872	9.31	-7.985
C 0.657	10.708	-8.55
C 0.143	11.693	-7.495
N -0.056	13.048	-8.043
H -1.258	6.991	-6.48
H -1.164	8.814	-8.161
H -0.662	9.361	-6.552
H 1.622	9.357	-7.209
H 1.212	8.658	-8.776
H 1.613	11.065	-8.903
H -0.048	10.645	-9.363
H -0.808	11.346	-7.121
H 0.856	11.74	-6.686
H -0.766	13.03	-8.807
H 0.832	13.428	-8.436
H -0.4	13.685	-7.289
N 1.406	6.189	-8.161
C 1.978	5.366	-9.202
C 1.787	3.913	-8.862
O 2.047	3.049	-9.674
C 3.484	5.632	-9.371
C 3.841	7.04	-9.806
O 3.887	7.334	-10.991
N 4.182	7.881	-8.871
H 2.015	6.599	-7.506
H 1.478	5.589	-10.134
H 3.976	5.449	-8.428
H 3.876	4.938	-10.101
H 4.198	7.542	-7.948
H 4.41	8.814	-9.085
N 1.289	3.66	-7.671
C 1.134	2.327	-7.167
C 1.853	2.181	-5.844
C 3.318	2.602	-5.822
C 3.886	2.503	-4.428
C 4.14	1.782	-6.781
H 0.976	4.394	-7.094
H 1.558	1.632	-7.874
H 1.309	2.754	-5.105
H 1.77	1.129	-5.608
H 3.354	3.631	-6.143
H 3.329	3.156	-3.772
H 4.924	2.802	-4.436
H 3.806	1.486	-4.073
H 4.08	0.739	-6.507
H 5.169	2.109	-6.738
H 3.758	1.913	-7.784
H 0.35547619047619056	7.202829931972789	-6.0708503401360545
H 0.0876979865771812	2.109409395973154	-7.0233758389261745
