47

C 3.072	-11.488	0.244
C 3.163	-10.754	1.576
O 2.14	-10.399	2.17
C 3.139	-12.984	0.465
C 3.039	-13.771	-0.823
C 3.346	-15.218	-0.627
O 4.53	-15.581	-0.514
O 2.392	-16.017	-0.561
H 2.131	-11.253	-0.228
H 4.077	-13.226	0.942
H 2.324	-13.282	1.108
H 2.035	-13.681	-1.209
H 3.739	-13.358	-1.534
N 4.378	-10.52	2.03
C 4.6	-9.809	3.271
C 4.241	-8.335	3.147
O 3.607	-7.787	4.043
C 6.021	-10.003	3.784
C 6.235	-11.221	4.677
C 5.747	-12.539	4.099
O 6.45	-13.115	3.243
O 4.633	-12.991	4.451
H 5.141	-10.837	1.499
H 3.916	-10.24	3.987
H 6.661	-10.135	2.926
H 6.325	-9.12	4.326
H 7.299	-11.299	4.839
H 5.744	-11.042	5.623
N 4.641	-7.686	2.038
C 4.241	-6.302	1.798
C 4.816	-5.774	0.477
C 6.327	-5.792	0.539
C 4.32	-4.353	0.196
C 6.966	-5.558	-0.79
H 5.228	-8.104	1.361
H 4.605	-5.696	2.616
H 4.494	-6.419	-0.326
H 6.662	-5.022	1.218
H 6.65	-6.756	0.91
H 3.242	-4.355	0.137
H 4.732	-4.006	-0.74
H 4.637	-3.697	0.994
H 6.587	-6.28	-1.498
H 8.034	-5.695	-0.718
H 6.739	-4.562	-1.141
H 3.854482993197279	-11.20339455782313	-0.41182993197278916
H 3.155201342281879	-6.242395973154363	1.7656845637583891
