61

H -1.27	-0.062	-7.951
H -3.572	-1.42	-6.798
H -2.774	-3.527	-7.735
H -1.262	-2.119	-9.651
H -3.57	-3.136	-10.033
H -3.419	-1.394	-9.744
H -4.566	-2.351	-8.804
N -2.139	-3.03	-5.359
C -1.382	-3.593	-4.265
C -0.029	-4.089	-4.774
O 1.016	-3.784	-4.207
C -2.114	-4.774	-3.632
C -1.347	-5.231	-2.428
C -3.535	-4.413	-3.248
H -3.01	-3.42	-5.604
H -1.21	-2.838	-3.513
H -2.146	-5.571	-4.361
H -0.346	-5.459	-2.765
H -1.826	-6.088	-1.981
H -1.306	-4.407	-1.732
H -4.011	-5.277	-2.811
H -4.073	-4.121	-4.139
H -3.528	-3.6	-2.539
N -0.071	-4.836	-5.851
C 1.112	-5.41	-6.436
H -0.938	-5.005	-6.278
H 1.655	-5.945	-5.671
H 0.814	-6.107	-7.205
C -0.323	2.024	-6.967
O -0.688	1.399	-6.008
N -1.129	2.501	-7.892
C -2.587	2.231	-7.993
C -3.049	0.786	-7.572
O -4.22	0.592	-7.229
C -3.034	2.507	-9.426
C -2.172	1.786	-10.459
C -2.652	1.997	-11.888
C -2.635	3.466	-12.276
N -2.902	3.664	-13.711
H -0.735	3.148	-8.514
H -3.092	2.945	-7.359
H -4.056	2.178	-9.544
H -2.975	3.568	-9.618
H -1.174	2.192	-10.377
H -2.137	0.733	-10.219
H -2.006	1.452	-12.561
H -3.661	1.625	-11.976
H -3.395	3.982	-11.708
H -1.668	3.878	-12.034
H -2.137	3.253	-14.29
H -2.978	4.683	-13.924
H -3.805	3.234	-14.009
N -2.183	-0.213	-7.636
C -2.564	-1.518	-7.169
C -1.708	-1.971	-6.013
O -0.638	-1.407	-5.751
C -2.553	-2.606	-8.251
O -1.263	-2.699	-8.872
C -3.6	-2.356	-9.286
H 0.6939664429530201	2.235489932885906	-7.106597315436241
H 1.758308724832215	-4.668899328859061	-6.865436241610738
