60

C 2.012	-4.378	-7.034
O 3.191	-4.617	-7.193
N 1.456	-3.223	-7.353
C 2.241	-2.131	-7.903
C 3.109	-1.595	-6.797
O 4.323	-1.442	-6.949
C 1.349	-1.01	-8.366
C 1.96	-0.21	-9.49
O 3.136	0.185	-9.405
O 1.264	0.012	-10.505
H 0.492	-3.1	-7.223
H 2.845	-2.492	-8.722
H 0.389	-1.393	-8.672
H 1.207	-0.378	-7.5
N 2.463	-1.342	-5.648
C 3.148	-0.895	-4.44
C 4.191	-1.878	-4.091
O 5.354	-1.545	-3.973
C 2.175	-0.828	-3.31
H 1.486	-1.466	-5.628
H 3.608	0.08	-4.551
H 1.733	-1.802	-3.156
H 1.401	-0.114	-3.548
H 2.685	-0.518	-2.41
N 3.767	-3.103	-4.002
C 4.598	-4.209	-3.666
C 5.781	-4.358	-4.653
O 6.858	-4.769	-4.265
C 3.736	-5.481	-3.636
O 2.653	-5.278	-2.719
C 4.529	-6.661	-3.183
H 2.813	-3.278	-4.163
H 4.989	-4.047	-2.673
H 3.338	-5.663	-4.624
H 1.91	-4.877	-3.185
H 5.372	-6.804	-3.84
H 3.896	-7.535	-3.203
H 4.875	-6.489	-2.176
N 5.589	-3.928	-5.889
C 6.606	-4.039	-6.909
C 6.023	-3.672	-8.276
C 6.661	-4.379	-9.46
C 6.187	-5.82	-9.554
C 4.684	-5.868	-9.8
N 4.161	-7.237	-9.929
H 4.736	-3.502	-6.124
H 6.988	-5.049	-6.932
H 4.97	-3.915	-8.274
H 6.133	-2.608	-8.418
H 6.391	-3.859	-10.368
H 7.734	-4.367	-9.34
H 6.699	-6.319	-10.364
H 6.4	-6.317	-8.619
H 4.18	-5.392	-8.972
H 4.463	-5.318	-10.704
H 3.133	-7.19	-10.093
H 4.36	-7.818	-9.085
H 4.592	-7.718	-10.748
H 1.383812080536913	-5.0983221476510066	-6.616604026845637
H 7.402395973154363	-3.335959731543624	-6.664120805369127
