61

N 9.084	-4.048	-2.765
C 9.908	-5.262	-2.706
C 9.19	-6.451	-3.366
C 9.971	-7.769	-3.43
C 10.303	-8.275	-2.046
C 9.193	-8.811	-4.206
H 8.258	-4.071	-3.299
H 10.006	-5.469	-1.641
H 8.274	-6.632	-2.823
H 8.933	-6.167	-4.376
H 10.912	-7.6	-3.932
H 10.905	-7.54	-1.531
H 10.853	-9.201	-2.124
H 9.39	-8.443	-1.493
H 8.245	-8.991	-3.721
H 9.757	-9.731	-4.241
H 9.02	-8.456	-5.212
C 7.715	-3.06	-6.568
O 8.888	-3.409	-6.56
N 7.311	-1.843	-6.237
C 8.217	-0.793	-5.886
C 8.868	-1.077	-4.528
O 10.087	-0.969	-4.371
C 7.443	0.537	-5.861
C 8.249	1.714	-5.393
C 9.384	2.123	-6.076
C 7.854	2.436	-4.293
C 10.094	3.222	-5.664
C 8.56	3.529	-3.87
C 9.779	3.836	-4.506
O 10.388	5.035	-4.141
H 6.353	-1.62	-6.222
H 8.981	-0.731	-6.646
H 7.091	0.753	-6.859
H 6.591	0.427	-5.207
H 9.726	1.571	-6.941
H 6.972	2.118	-3.757
H 10.973	3.514	-6.217
H 8.22	4.069	-3.001
H 10.543	5.618	-4.904
N 8.051	-1.466	-3.579
C 8.476	-1.722	-2.219
C 9.438	-2.925	-2.135
O 10.484	-2.823	-1.521
C 7.244	-1.921	-1.28
C 6.383	-0.653	-1.298
C 7.682	-2.237	0.15
C 5.094	-0.745	-0.51
H 7.1	-1.575	-3.808
H 8.988	-0.822	-1.911
H 6.652	-2.744	-1.652
H 6.95	0.172	-0.893
H 6.129	-0.428	-2.323
H 8.262	-1.422	0.554
H 8.283	-3.133	0.144
H 6.809	-2.399	0.767
H 5.313	-0.936	0.53
H 4.486	-1.541	-0.913
H 4.575	0.197	-0.608
H 6.94093288590604	-3.7433288590604024	-6.806013422818792
H 10.871718120805369	-5.104013422818792	-3.217302013422819
