61

C 11.25	-5.042	-3.418
O 12.302	-5.431	-2.92
N 11.194	-4.393	-4.574
C 12.395	-4.112	-5.398
C 13.364	-3.221	-4.637
O 14.579	-3.356	-4.729
C 11.969	-3.413	-6.699
C 13.11	-3.114	-7.65
O 13.428	-3.974	-8.5
O 13.661	-2.002	-7.61
H 10.32	-4.096	-4.912
H 12.874	-5.048	-5.64
H 11.263	-4.042	-7.219
H 11.483	-2.483	-6.447
N 12.801	-2.357	-3.839
C 13.55	-1.383	-3.076
C 13.8	-1.806	-1.638
O 14.29	-1.007	-0.851
C 12.889	-0.013	-3.134
C 13.134	0.733	-4.4
N 13.796	1.933	-4.442
C 12.792	0.451	-5.673
C 13.855	2.353	-5.688
N 13.252	1.47	-6.456
H 11.823	-2.376	-3.751
H 14.513	-1.3	-3.557
H 11.82	-0.15	-3.042
H 13.232	0.584	-2.304
H 14.175	2.401	-3.657
H 12.249	-0.421	-6.01
H 14.317	3.271	-6.022
H 13.602	1.255	-7.356
N 13.424	-3.039	-1.293
C 13.62	-3.584	0.067
C 15.039	-3.361	0.58
O 16.014	-3.746	-0.089
C 13.316	-5.085	0.116
C 11.856	-5.458	0.16
C 11.157	-4.992	1.407
O 11.739	-4.886	2.478
N 9.902	-4.764	1.291
H 13.009	-3.607	-1.976
H 12.916	-3.066	0.703
H 13.715	-5.52	-0.789
H 13.816	-5.538	0.954
H 11.356	-5.009	-0.684
H 11.769	-6.532	0.095
H 9.501	-4.922	0.417
H 9.41	-4.42	2.057
N 15.122	-2.738	1.755
C 16.37	-2.436	2.446
C 17.222	-1.453	1.658
O 18.033	-1.869	0.803
C 17.139	-3.7	2.817
O 17.068	-0.234	1.884
H 14.288	-2.441	2.174
H 16.085	-1.934	3.36
H 16.493	-4.366	3.371
H 17.992	-3.439	3.424
H 17.477	-4.193	1.917
H 10.313302013422819	-5.195557046979865	-2.9210335570469796
