57

H -2.165	1.196	-2.057
H -0.062	-0.082	-1.716
H 0.798	1.199	-2.556
H -0.728	1.451	0.032
H 0.064	2.787	-0.824
H 1.403	0.297	0.223
H 1.478	1.896	0.961
H 2.203	1.62	-0.622
O -7.109	10.621	-2.379
C -5.824	10.161	-1.79
C -4.778	11.267	-1.646
C -4.693	12.031	-2.947
C -5.209	12.215	-0.529
C -3.37	10.602	-1.239
O -3.497	9.935	-0.022
C -3.004	9.522	-2.228
O -3.2	8.325	-1.939
N -2.512	9.911	-3.343
C -2.131	9.053	-4.419
C -3.179	9.121	-5.508
C -4.252	8.052	-5.466
O -5.123	7.993	-6.351
N -4.16	7.195	-4.489
C -5.049	6.113	-4.308
C -4.362	4.96	-3.645
S -2.787	4.756	-4.291
C -2.625	3.092	-3.891
O -3.525	2.254	-4.091
C -1.301	2.71	-3.271
C -1.31	1.321	-2.703
C -0.055	0.976	-1.933
C 0.078	1.724	-0.633
C 1.382	1.359	0.029
H -5.382	9.446	-2.466
H -5.999	9.718	-0.823
H -3.959	12.817	-2.862
H -5.662	12.456	-3.165
H -4.415	11.347	-3.734
H -4.474	12.999	-0.416
H -6.169	12.645	-0.776
H -5.289	11.656	0.39
H -2.603	11.361	-1.201
H -3.488	9.012	-0.31
H -2.379	10.882	-3.458
H -1.243	9.508	-4.834
H -1.929	8.051	-4.078
H -3.598	10.113	-5.511
H -2.648	8.974	-6.435
H -3.437	7.247	-3.828
H -5.924	6.407	-3.751
H -5.362	5.768	-5.284
H -4.927	4.045	-3.702
H -4.218	5.255	-2.614
H -0.975	3.439	-2.546
H -0.596	2.721	-4.091
H -1.388	0.647	-3.547
H -7.906867052023121	10.299722543352601	-2.0840751445086703
