53

H -6.188	2.3	8.33
H -7.347	5.538	7.152
H -8.453	5.208	8.489
H -9.018	5.083	6.814
H -4.398	3.954	8.123
H -5.564	5.085	7.407
H -5.155	3.616	6.562
N -9.59	1.743	5.833
C -10.557	1.56	4.73
C -11.467	0.402	5.015
O -12.61	0.362	4.567
C -9.86	1.332	3.402
H -8.687	1.363	5.755
H -11.152	2.459	4.659
H -9.26	0.435	3.456
H -9.233	2.177	3.159
H -10.606	1.207	2.627
N -10.946	-0.55	5.74
C -11.71	-1.694	6.093
C -11.642	-2.773	5.052
O -12.511	-3.636	5.007
H -10.018	-0.471	6.05
H -11.343	-2.086	7.029
H -12.742	-1.398	6.22
N -10.627	-2.724	4.193
C -10.441	-3.761	3.217
C -9.555	-3.292	2.061
C -10.183	-2.069	1.403
C -9.365	-4.427	1.062
C -11.632	-2.274	1.062
H -9.974	-1.994	4.212
H -11.41	-4.031	2.81
H -8.588	-3.021	2.458
H -10.113	-1.229	2.077
H -9.651	-1.842	0.491
H -8.984	-5.29	1.59
H -8.632	-4.143	0.323
H -10.309	-4.676	0.598
H -11.708	-3.127	0.404
H -12.025	-1.393	0.577
H -12.179	-2.476	1.97
C -8.872	2.606	8.034
C -9.938	2.429	6.928
O -11.064	2.9	7.067
C -7.75	3.478	7.446
C -6.447	3.343	8.222
C -8.181	4.936	7.481
C -5.303	4.044	7.543
H -9.285	3.119	8.888
H -7.594	3.177	6.423
H -6.562	3.802	9.193
H -8.47748299319728	1.672843537414966	8.358639455782313
H -9.935442953020134	-4.574630872483222	3.7089127516778526
