66

N -2.58	-8.613	-4.893
C -1.703	-7.717	-5.655
C -2.405	-7.115	-6.88
O -2.098	-5.996	-7.307
C -0.403	-8.45	-6.037
C -0.381	-9.326	-7.297
C -0.037	-8.492	-8.532
C 0.596	-10.478	-7.134
H -2.383	-9.578	-4.887
H -1.448	-6.9	-4.995
H 0.389	-7.723	-6.129
H -0.175	-9.089	-5.198
H -1.374	-9.729	-7.433
H -0.782	-7.718	-8.647
H -0.015	-9.115	-9.412
H 0.928	-8.027	-8.383
H 1.588	-10.088	-6.963
H 0.595	-11.081	-8.03
H 0.299	-11.085	-6.291
N -3.394	-7.814	-7.361
C -4.115	-7.464	-8.568
C -5.168	-6.454	-8.261
O -5.871	-5.974	-9.154
C -4.827	-8.699	-9.112
C -3.923	-9.765	-9.642
O -3.409	-10.565	-8.845
O -3.653	-9.791	-10.864
H -3.692	-8.604	-6.868
H -3.431	-7.104	-9.322
H -5.366	-9.141	-8.288
H -5.524	-8.408	-9.884
N -5.279	-6.109	-7.009
C -6.344	-5.321	-6.592
C -5.951	-3.896	-6.567
O -5.012	-3.494	-5.871
C -6.845	-5.729	-5.221
C -7.144	-7.193	-5.019
C -7.923	-7.81	-6.15
C -8.625	-9.068	-5.701
N -9.658	-8.769	-4.69
H -4.592	-6.336	-6.348
H -7.154	-5.454	-7.292
H -6.109	-5.451	-4.482
H -7.752	-5.196	-5.001
H -6.189	-7.675	-4.935
H -7.687	-7.311	-4.092
H -8.659	-7.101	-6.499
H -7.243	-8.05	-6.954
H -9.091	-9.532	-6.558
H -7.896	-9.742	-5.276
H -9.261	-8.527	-3.76
H -10.341	-9.551	-4.596
H -10.198	-7.936	-5.021
N -6.587	-3.171	-7.375
C -6.499	-1.752	-7.35
C -7.156	-1.181	-8.605
O -6.653	-1.804	-9.774
H -7.11	-3.641	-8.055
H -5.462	-1.453	-7.303
H -8.223	-1.339	-8.555
H -6.951	-0.121	-8.658
H -6.284	-1.113	-10.343
C -3.631	-8.172	-4.271
O -4.087	-7.068	-4.476
H -4.128664429530201	-8.816241610738256	-3.603026845637584
H -7.037590604026845	-1.4173557046979866	-6.455939597315436
