48

C -7.249	-1.286	-6.105
O -8.47	-1.393	-6.051
N -6.511	-0.906	-5.076
C -7.092	-0.403	-3.803
C -8.346	0.493	-3.981
O -9.441	0.15	-3.509
C -6.058	0.362	-2.991
C -5.104	-0.48	-2.214
C -5.486	-1.002	-0.994
C -3.829	-0.733	-2.678
C -4.623	-1.761	-0.248
C -2.95	-1.491	-1.935
C -3.347	-2.01	-0.713
H -5.541	-1.032	-5.174
H -7.368	-1.284	-3.239
H -5.473	0.956	-3.677
H -6.571	1.019	-2.303
H -6.482	-0.814	-0.616
H -3.498	-0.338	-3.629
H -4.972	-2.154	0.697
H -1.956	-1.668	-2.327
H -2.663	-2.608	-0.13
N -8.178	1.614	-4.635
C -9.222	2.6	-4.879
C -10.142	2.181	-6.075
O -10.597	3.025	-6.856
C -8.489	3.914	-5.217
O -7.264	3.921	-4.483
C -9.265	5.12	-4.772
H -7.292	1.9	-4.95
H -9.801	2.755	-3.983
H -8.292	3.965	-6.278
H -6.567	3.557	-5.051
H -9.424	5.032	-3.708
H -10.203	5.175	-5.304
H -8.656	5.99	-4.969
N -10.471	0.892	-6.145
C -11.275	0.34	-7.246
C -10.384	0.17	-8.504
C -11.094	-0.438	-9.708
O -11.184	-1.685	-9.812
O -11.523	0.323	-10.601
H -10.17	0.296	-5.427
H -12.069	1.035	-7.473
H -10.016	1.14	-8.799
H -9.537	-0.454	-8.253
H -6.725510067114094	-1.611261744966443	-6.973993288590604
H -11.705154362416108	-0.6323355704697988	-6.962342281879195
