12

H -3.6494157645	-0.2692421977	2.836603852
C -2.0309914913	-0.2553351156	-0.1462834321
C -2.3544609515	0.0765109318	1.1704180053
C -3.4170497562	-0.5382294593	1.8144765345
C -4.1755484607	-1.4988584053	1.158796164
C -3.8637781955	-1.8346361839	-0.1503967425
C -2.8057305196	-1.2139616626	-0.7994896591
H -1.767063985	0.8174691844	1.6945323366
H -5.0040817616	-1.9779765967	1.6632196767
H -4.4526079928	-2.5750324954	-0.6760331575
H -2.5835031548	-1.4695693697	-1.8269795614
H -1.2025935430534247	0.207305659260274	-0.6299322333164383
