18

C 1.0869982556	0.6976186022	-0.6571534401
C 1.5294683427	0.0008826433	0.3943229904
H -0.6003942055	-1.379119477	-1.2095570615
H -0.1479985167	-0.4773397241	-2.6414661329
H -1.8129255126	-0.4527376785	-2.1027866167
C -1.2042814117	0.9445087236	0.4183914847
C -0.4156468861	0.8091422798	-0.9204344279
C -0.9577309661	2.0199925263	-1.7108360488
H -0.449146967	2.941499344	-1.4300830123
H -0.822847957	1.9057452916	-2.7877008973
C -0.780585143	-0.4528007196	-1.7517545769
H 2.5792196737604027	-0.19141290621946308	0.5752411313771812
H 1.7281484098013422	1.1211883047395974	-1.3807823681214764
H 0.8645021847993288	-0.34801973770402683	1.1559064434845638
H -1.0153277124361841	0.06570280357631575	1.0063659354046053
H -2.2237581022125	1.086381964594079	0.05598487185592099
H -0.8812918215296053	1.8140158326282894	0.9874071893289474
H -2.0150952290296056	2.073141234529605	-1.433388875880263
