20

H -3.8078809491	-1.6075533961	1.9950167059
H -4.427922616	-0.0656688162	1.3999255211
H -4.3049647793	-0.7193700906	-1.6221649981
H -3.7343927404	0.7846586754	-0.9219946611
H -2.6560696595	-0.1847605531	-1.9329283759
H -3.6864679126	-2.9073100681	-0.7503074585
H -2.029962414	-2.5559374632	-1.2160101032
H -2.3906501428	-3.1142342879	0.4232582724
C -1.9917618355	0.9488937387	1.4031196167
C -1.6817013015	-0.4110625844	0.730210056
H -2.3770875981	0.7702246252	2.4085140308
H -2.7871602048	1.4713025536	0.8734977472
H -1.4433818188	-1.1048516752	1.5472688337
C -2.9694166241	-1.0306669075	0.0576463013
C -4.1085097723	-1.0623500939	1.0958291964
C -3.4356725665	-0.233734769	-1.1710142526
C -2.7434161502	-2.4836416649	-0.396209711
H -4.982208885	-1.5700058694	0.6800105137
H -0.7699967301597315	-0.38875630071946304	0.11446978494429527
H -1.1406322346092104	1.598012101513158	1.4580907575881579
