12

C 2.7467706994	0.1319556844	0.3609123844
C 3.8772151395	0.53850785	-0.3500784867
C 5.1390742574	0.0745548237	-0.0075427968
C 5.2945620109	-0.8073248135	1.0527580887
C 4.1785606016	-1.2179326797	1.767862817
C 2.9176564976	-0.7495282886	1.4277521353
H 3.7647033268	1.216717129	-1.1854998871
H 6.001917152	0.399766468	-0.5741508772
H 6.2780815213	-1.1703757768	1.3205072422
H 4.2887811627	-1.9019534664	2.5991690314
H 2.0562402808	-1.0665305503	1.998507369
H 1.7899240620246575	0.497403326290411	0.0953951301205479
