12

H -2.5762556857	1.7654886021	0.776490041
H -4.7129550155	2.9304640007	0.7835448118
H -6.7865306612	1.7769491416	0.0671133495
H -6.6556399262	-0.5916823252	-0.659952979
H -4.5113408291	-1.7762796465	-0.6708281375
C -3.4599405283	1.2324690082	0.4611845315
C -4.6804613617	1.8976122894	0.462767283
C -5.8391069383	1.2563175315	0.0641412083
C -5.7618440619	-0.0708709905	-0.3425015576
C -4.5556313975	-0.7473200521	-0.3533398158
C -3.3877287547	-0.0963971077	0.0546220476
H -2.49638082775	-0.5857757007222223	0.03735104695555555
