67

N 10.194	0.154	-5.386
C 11.597	0.148	-5.856
C 12.494	-0.385	-4.734
O 12.844	-1.548	-4.733
C 11.983	1.599	-6.227
O 12.613	1.475	-7.493
H 9.786	0.981	-5.086
H 11.676	-0.512	-6.72
H 11.093	2.22	-6.313
H 12.669	2.022	-5.51
H 13.486	1.101	-7.354
N 12.856	0.459	-3.793
C 13.722	-0.04	-2.69
C 14.236	1.045	-1.759
O 14.105	2.228	-2.003
C 14.914	-0.798	-3.29
O 14.539	-2.164	-3.2
H 12.565	1.393	-3.819
H 13.115	-0.698	-2.078
H 15.067	-0.519	-4.321
H 15.81	-0.618	-2.713
H 13.582	-2.205	-3.129
N 14.821	0.576	-0.696
C 15.382	1.474	0.331
C 16.539	2.324	-0.13
O 16.886	3.278	0.537
C 15.927	0.603	1.461
O 14.919	0.598	2.453
C 17.136	1.293	2.134
H 14.892	-0.394	-0.575
H 14.601	2.111	0.705
H 16.149	-0.405	1.126
H 14.623	-0.307	2.571
H 16.842	2.291	2.453
H 17.44	0.729	2.991
H 17.991	1.366	1.425
N 17.094	2.087	-1.248
C 18.2	2.975	-1.558
C 17.646	4.314	-1.719
O 18.032	5.219	-1.005
C 18.95	2.452	-2.753
O 18.042	1.565	-3.39
H 16.795	1.373	-1.853
H 18.859	2.996	-0.683
H 19.247	3.248	-3.407
H 19.81	1.901	-2.4
H 18.554	0.882	-3.83
N 16.697	4.508	-2.685
C 16.076	5.737	-2.694
C 15.27	5.719	-1.417
O 15.579	6.395	-0.457
C 15.159	5.741	-3.932
C 15.24	4.309	-4.539
C 16.333	3.57	-3.758
H 16.795	6.51	-2.674
H 14.142	5.967	-3.64
H 15.504	6.471	-4.649
H 14.299	3.8	-4.426
H 15.502	4.362	-5.586
H 15.961	2.646	-3.348
H 17.175	3.393	-4.401
N 14.263	4.906	-1.456
H 14.103	4.397	-2.273
C 9.501	-0.95	-5.377
O 9.942	-2.021	-5.744
H 8.504973154362416	-0.8557718120805369	-5.022422818791946
H 13.631571428571428	4.785959183673469	-0.6545714285714285
