53

C 13.353	4.733	-0.301
C 12.229	3.783	-0.651
O 11.436	4.075	-1.503
C 12.728	6.026	0.184
C 12.221	5.689	1.581
N 12.724	6.088	2.646
C 11.211	4.831	1.957
C 12.143	5.571	3.646
N 11.162	4.758	3.3
H 13.927	4.281	0.504
H 13.453	6.817	0.235
H 11.903	6.312	-0.451
H 13.472	6.719	2.704
H 10.595	4.277	1.29
H 12.422	5.757	4.653
N 12.185	2.66	0.026
C 11.114	1.649	-0.24
C 11.561	0.269	0.359
O 12.677	-0.147	0.138
C 10.954	1.499	-1.787
C 9.731	2.322	-2.322
C 10.056	3.102	-3.646
N 11.506	3.417	-3.802
C 11.853	4.597	-4.248
N 11.727	5.636	-3.467
N 12.314	4.698	-5.465
H 12.854	2.482	0.711
H 10.209	1.988	0.224
H 11.833	1.827	-2.243
H 10.81	0.456	-2.027
H 8.923	1.64	-2.519
H 9.415	3.023	-1.585
H 9.73	2.528	-4.484
H 9.52	4.027	-3.645
H 12.188	2.751	-3.591
H 11.368	5.526	-2.542
H 11.989	6.543	-3.796
H 12.396	3.882	-6.038
H 12.584	5.591	-5.825
N 10.691	-0.421	1.119
C 11.06	-1.726	1.71
C 9.803	-2.175	2.491
C 8.705	-1.098	2.275
C 9.327	0.036	1.45
H 11.902	-1.593	2.381
H 9.456	-3.127	2.122
H 10.034	-2.258	3.542
H 7.869	-1.525	1.741
H 8.369	-0.718	3.228
H 8.765	0.198	0.55
H 9.367	0.941	2.039
H 14.015380952380951	4.8589251700680265	-1.1417142857142857
H 11.309187919463087	-2.4893624161073826	0.9495100671140939
