51

C -0.719	-5.782	-5.299
O -1.083	-4.674	-5.636
N 0.507	-6.053	-4.913
C 1.523	-4.998	-4.886
C 1.985	-4.714	-6.296
O 3.129	-4.927	-6.646
C 2.719	-5.527	-4.067
C 2.502	-5.458	-2.519
C 3.695	-4.706	-1.975
C 1.197	-4.742	-2.097
H 0.742	-6.944	-4.611
H 1.121	-4.1	-4.48
H 2.909	-6.553	-4.344
H 3.593	-4.944	-4.315
H 2.494	-6.443	-2.104
H 4.602	-5.195	-2.289
H 3.684	-3.719	-2.358
H 3.664	-4.674	-0.921
H 0.355	-5.135	-2.644
H 1.02	-4.903	-1.062
H 1.287	-3.686	-2.269
N 1.065	-4.233	-7.081
C 1.38	-3.916	-8.466
C 2.088	-2.579	-8.553
O 1.524	-1.565	-8.241
C 0.033	-3.887	-9.265
C -0.201	-2.531	-9.985
C -1.357	-2.695	-10.973
O -2.482	-2.575	-10.515
O -1.051	-2.929	-12.131
H 0.172	-4.088	-6.749
H 2.031	-4.684	-8.848
H 0.041	-4.679	-9.998
H -0.784	-4.062	-8.579
H -0.467	-1.771	-9.267
H 0.679	-2.223	-10.531
N 3.322	-2.622	-8.958
C 4.117	-1.372	-9.087
C 3.602	-0.628	-10.325
C 4.363	-1.118	-11.558
C 5.785	-0.553	-11.532
O 5.889	0.657	-11.651
O 6.687	-1.363	-11.395
H 3.731	-3.485	-9.182
H 5.15	-1.63	-9.214
H 2.544	-0.818	-10.448
H 3.757	0.433	-10.2
H 4.408	-2.197	-11.556
H 3.862	-0.783	-12.454
H -1.3981409395973152	-6.605624161073825	-5.2934161073825505
H 4.0301073825503355	-0.6948120805369128	-8.229563758389261
