47

H -5.327	-2.35	1.265
H -6.591	0.273	1.535
H -7.352	-1.315	1.42
H -7.136	0.292	3.762
H -7.687	-1.392	3.669
N -2.319	-1.189	3.738
C -1.068	-0.396	3.937
C -0.348	-0.169	2.637
O -0.625	-0.825	1.623
C -0.116	-1.21	4.791
C 0.308	-2.323	3.892
C -0.496	-3.294	3.598
C 1.404	-2.36	3.15
N 0.121	-3.948	2.617
C 1.333	-3.426	2.274
C 2.519	-1.532	3.118
C 2.339	-3.671	1.383
C 3.536	-1.783	2.213
C 3.444	-2.852	1.349
H -2.329	-2.132	3.936
H -1.289	0.535	4.397
H 0.73	-0.619	5.094
H -0.626	-1.607	5.657
H -1.434	-3.508	4.059
H -0.285	-4.692	2.143
H 2.598	-0.691	3.799
H 2.262	-4.512	0.707
H 4.4	-1.139	2.177
H 4.242	-3.048	0.652
N 0.595	0.734	2.707
H 0.764	1.195	3.557
C -6.569	-0.723	6.311
C -5.416	-1.182	5.385
O -4.368	-1.566	5.864
H -7.519	-0.925	5.861
H -6.48	0.338	6.494
N -5.629	-1.152	4.067
C -4.585	-1.567	3.128
C -3.397	-0.636	3.271
O -3.48	0.531	2.937
C -5.21	-1.392	1.735
C -6.6	-0.733	1.928
C -6.886	-0.706	3.436
H -4.278	-2.615	3.315
H -4.582	-0.762	1.122
H 1.1501020408163265	0.9699183673469388	1.8875306122448978
H -6.519503401360544	-1.2550884353741496	7.254346938775511
