49

C -11.054	-6.183	-0.667
O -10.234	-5.546	-1.292
N -10.731	-7.107	0.188
C -9.302	-7.427	0.39
C -8.85	-8.278	-0.763
O -8.452	-9.418	-0.621
C -9.136	-8.178	1.732
C -8.626	-7.198	2.803
O -8.667	-5.997	2.637
N -8.14	-7.672	3.915
H -11.416	-7.586	0.672
H -8.731	-6.5	0.381
H -10.086	-8.584	2.044
H -8.424	-8.981	1.625
H -8.104	-8.641	4.059
H -7.803	-7.061	4.606
N -8.939	-7.673	-1.9
C -8.539	-8.359	-3.155
C -9.775	-8.576	-4.03
O -9.987	-9.652	-4.553
H -9.275	-6.744	-1.922
H -7.827	-7.751	-3.685
H -8.092	-9.313	-2.922
N -10.57	-7.543	-4.171
C -11.781	-7.673	-4.997
C -12.224	-6.329	-5.578
O -12.461	-6.222	-6.765
C -12.911	-8.228	-4.118
C -13.862	-9.055	-4.986
C -15.255	-9.048	-4.353
C -15.979	-10.345	-4.721
N -15.605	-11.436	-3.777
H -10.362	-6.702	-3.746
H -11.564	-8.345	-5.807
H -12.494	-8.851	-3.341
H -13.452	-7.411	-3.664
H -13.912	-8.628	-5.977
H -13.5	-10.07	-5.056
H -15.166	-8.974	-3.28
H -15.817	-8.202	-4.721
H -17.047	-10.189	-4.675
H -15.709	-10.639	-5.724
H -14.591	-11.369	-3.554
H -16.16	-11.343	-2.902
H -15.803	-12.358	-4.217
N -12.331	-5.322	-4.741
H -12.129	-5.439	-3.78
H -12.089114093959733	-5.979885906040269	-0.784261744966443
H -12.630061224489797	-4.400530612244898	-5.108061224489796
