53

H 11.271	13.107	5.247
C 8.99	6.947	-2.386
C 9.813	7.762	-1.403
O 10.842	8.279	-1.791
C 8.859	7.767	-3.677
O 7.808	8.68	-3.431
C 8.351	6.907	-4.849
H 9.524	6.034	-2.581
H 9.779	8.296	-3.912
H 7.432	8.934	-4.277
H 8.419	5.862	-4.597
H 7.322	7.156	-5.062
H 8.951	7.099	-5.726
N 9.399	7.895	-0.166
C 10.254	8.699	0.719
C 9.993	8.437	2.245
O 8.917	8.054	2.629
C 9.889	10.13	0.415
C 11.081	10.866	-0.209
O 11.402	10.523	-1.334
O 11.6	11.731	0.477
H 8.558	7.525	0.138
H 11.279	8.494	0.46
H 9.045	10.132	-0.262
H 9.62	10.622	1.32
N 11.018	8.687	3.077
C 10.945	8.496	4.55
C 9.816	9.3	5.233
O 8.804	8.736	5.598
C 12.316	8.995	5.071
C 13.07	9.602	3.857
C 12.31	9.165	2.6
H 10.819	7.453	4.769
H 12.182	9.742	5.836
H 12.879	8.166	5.474
H 13.081	10.679	3.929
H 14.084	9.229	3.826
H 12.159	9.969	1.935
H 12.843	8.373	2.106
N 10.03	10.599	5.409
C 8.984	11.462	6.069
C 9.152	12.901	5.558
C 10.531	13.424	5.967
C 10.497	14.953	6.017
O 9.669	15.452	6.762
O 11.301	15.535	5.308
H 10.872	10.999	5.108
H 9.117	11.417	7.148
H 9.063	12.917	4.482
H 8.385	13.53	5.986
H 10.794	13.041	6.942
H 7.994972789115646	6.696605442176871	-2.046074829931973
H 7.977912751677852	11.120892617449664	5.82196644295302
