73

N 7.472	10.445	4.563
C 6.176	9.932	4.083
C 6.383	8.516	3.643
O 6.06	8.168	2.559
C 5.772	10.744	2.855
C 6.969	10.804	1.876
C 6.559	11.605	0.632
C 6.012	10.655	-0.439
N 4.817	9.928	0.072
H 8.261	10.367	3.992
H 5.423	9.98	4.869
H 4.929	10.278	2.381
H 5.5	11.745	3.157
H 7.785	11.306	2.363
H 7.279	9.817	1.586
H 5.799	12.324	0.899
H 7.419	12.131	0.242
H 5.73	11.222	-1.313
H 6.77	9.941	-0.714
H 4.248	10.573	0.652
H 4.248	9.587	-0.729
H 5.118	9.125	0.65
N 6.897	7.717	4.498
C 7.124	6.32	4.102
C 5.9	5.477	4.077
O 5.879	4.555	3.328
C 8.079	5.688	5.081
C 7.343	5.399	6.375
C 8.4	5.088	7.423
N 7.866	4.073	8.375
C 8.652	3.123	8.803
N 9.414	2.501	7.945
N 8.65	2.827	10.074
H 7.14	8.031	5.386
H 7.554	6.305	3.112
H 8.468	4.769	4.67
H 8.89	6.359	5.276
H 6.755	6.268	6.662
H 6.684	4.545	6.255
H 9.287	4.691	6.927
H 8.661	5.986	7.959
H 6.935	4.118	8.676
H 9.39	2.755	6.978
H 10.023	1.77	8.255
H 8.053	3.325	10.703
H 9.246	2.102	10.42
N 4.896	5.757	4.877
C 3.715	4.863	4.79
C 2.487	5.296	5.538
O 2.429	6.312	6.202
C 4.09	3.46	5.309
C 3.842	3.393	6.824
C 4.226	4.434	7.65
C 3.237	2.286	7.385
C 4.008	4.365	9.011
C 3.02	2.22	8.747
C 3.404	3.258	9.569
O 3.188	3.19	10.931
H 4.915	6.518	5.469
H 3.438	4.809	3.765
H 3.475	2.706	4.815
H 5.124	3.257	5.116
H 4.695	5.307	7.228
H 2.929	1.467	6.753
H 4.314	5.185	9.644
H 2.546	1.347	9.171
H 2.243	3.109	11.078
N 1.531	4.428	5.378
H 1.725	3.638	4.829
C 7.583	10.987	5.725
O 6.658	11.12	6.503
H 8.560879194630873	11.318543624161073	5.965107382550335
H 0.5970408163265306	4.518897959183674	5.797795918367346
