55

C -8.238	1.699	-1.756
C -10.395	1.326	-0.593
C -7.612	0.352	-1.402
H -7.923	4.093	0.605
H -9.487	3.914	-1.851
H -8.566	2.083	0.34
H -8.844	1.593	-2.642
H -7.457	2.408	-1.952
H -11.072	1.673	-1.357
H -10.145	0.293	-0.797
H -10.873	1.393	0.372
H -7.882	0.064	-0.407
H -7.952	-0.396	-2.091
H -6.54	0.429	-1.468
N -11.846	4.064	-1.052
C -13.218	4.33	-0.537
C -13.508	3.46	0.68
O -12.992	2.369	0.794
C -14.233	3.974	-1.647
C -14.712	5.24	-2.4
C -15.76	5.983	-1.554
C -13.525	6.174	-2.699
H -11.685	3.985	-2.015
H -13.292	5.369	-0.249
H -13.769	3.297	-2.348
H -15.086	3.481	-1.204
H -15.165	4.941	-3.334
H -16.559	5.307	-1.29
H -15.311	6.366	-0.653
H -16.167	6.806	-2.123
H -12.608	5.608	-2.716
H -13.668	6.641	-3.662
H -13.458	6.941	-1.943
N -14.327	3.964	1.57
C -14.66	3.175	2.787
C -15.765	3.908	3.559
C -15.444	3.868	5.055
C -14.23	4.755	5.336
O -14.424	5.959	5.321
O -13.176	4.178	5.551
H -14.716	4.853	1.435
H -13.761	3.065	3.4
H -15.819	4.935	3.227
H -16.715	3.427	3.378
H -16.29	4.231	5.62
H -15.223	2.854	5.354
C -8.314	5.778	-0.405
O -8.96	6.342	-1.265
N -8.472	4.496	-0.095
C -9.481	3.665	-0.803
C -10.858	3.936	-0.206
O -10.999	4.029	0.998
C -9.111	2.183	-0.598
H -15.01403355704698	2.1818389261744966	2.517704697986577
H -7.564362416107382	6.293114093959732	0.16246308724832204
