22

C 6.804	-2.108	5.75
O 7.883	-1.914	5.215
O 6.524	-1.955	6.926
C 5.674	-2.597	4.841
C 4.475	-3.013	5.693
C 4.84	-4.259	6.505
C 4.524	-4.011	7.985
C 3.034	-3.693	8.141
N 2.424	-4.55	9.196
H 6.022	-3.44	4.263
H 5.385	-1.802	4.173
H 3.634	-3.233	5.05
H 4.21	-2.21	6.361
H 5.892	-4.471	6.39
H 4.269	-5.102	6.149
H 5.111	-3.181	8.348
H 4.768	-4.893	8.56
H 2.526	-3.869	7.205
H 2.913	-2.656	8.417
H 2.321	-4.0	10.072
H 3.037	-5.371	9.373
H 1.49	-4.878	8.88
