61

H -9.933	-1.28	-2.922
H -9.282	-1.225	-6.617
H -9.331	-3.534	-3.045
H -8.51	-3.184	-7.872
H -8.569	-5.491	-4.3
H -8.669	-6.29	-6.711
N -10.494	1.654	-4.983
C -10.262	2.831	-5.869
C -8.969	3.562	-5.494
O -8.1	3.747	-6.322
C -11.442	3.81	-5.704
C -12.726	3.192	-6.284
C -13.531	2.543	-5.155
N -14.429	1.506	-5.735
C -15.503	1.876	-6.376
N -15.375	2.561	-7.479
N -16.671	1.549	-5.892
H -10.262	1.699	-4.032
H -10.182	2.489	-6.899
H -11.587	4.027	-4.656
H -11.221	4.731	-6.224
H -13.319	3.965	-6.75
H -12.477	2.448	-7.023
H -12.863	2.08	-4.444
H -14.126	3.291	-4.655
H -14.215	0.555	-5.636
H -14.464	2.793	-7.82
H -16.187	2.853	-7.983
H -16.731	1.024	-5.043
H -17.505	1.825	-6.369
N -8.865	3.965	-4.253
H -9.59	3.797	-3.618
C -12.762	-3.994	-5.27
C -12.135	-2.844	-4.488
O -11.935	-2.937	-3.293
C -14.29	-3.899	-5.147
C -14.94	-4.677	-6.294
O -15.497	-5.739	-6.101
N -14.891	-4.184	-7.501
H -12.457	-3.915	-6.312
H -14.609	-4.322	-4.207
H -14.599	-2.865	-5.197
H -14.443	-3.328	-7.663
H -15.302	-4.67	-8.246
N -11.833	-1.774	-5.186
C -11.216	-0.601	-4.507
C -11.012	0.556	-5.485
O -11.316	0.441	-6.656
C -9.848	-1.027	-3.967
C -9.357	-2.247	-4.747
C -9.122	-2.162	-6.104
C -9.152	-3.452	-4.107
C -8.69	-3.264	-6.81
C -8.72	-4.554	-4.813
C -8.486	-4.469	-6.17
O -8.054	-5.572	-6.877
H -12.013	-1.747	-6.149
H -11.867	-0.274	-3.7
H -9.142	-0.221	-4.087
H -12.448278911564625	-4.960639455782313	-4.884945578231292
H -8.005285714285714	4.467367346938776	-3.949081632653061
