45

C -1.036	4.856	-5.449
C -1.009	6.098	-4.574
O -0.231	7.006	-4.788
C 0.003	4.968	-6.545
O -0.618	5.768	-7.541
H -0.833	3.989	-4.821
H 0.898	5.446	-6.18
H 0.226	3.992	-6.931
H -0.927	5.185	-8.239
N -1.87	6.102	-3.602
C -1.95	7.25	-2.673
C -2.15	6.716	-1.257
O -2.864	5.762	-1.067
C -3.157	8.117	-3.069
C -3.534	7.851	-4.532
C -4.645	8.819	-4.944
C -4.017	10.095	-5.509
N -4.945	11.249	-5.345
H -2.473	5.338	-3.483
H -1.02	7.817	-2.718
H -3.995	7.879	-2.433
H -2.903	9.158	-2.951
H -2.673	8.0	-5.164
H -3.885	6.835	-4.64
H -5.267	8.358	-5.697
H -5.252	9.063	-4.085
H -3.095	10.306	-4.987
H -3.804	9.96	-6.559
H -5.754	10.963	-4.757
H -4.443	12.035	-4.885
H -5.286	11.555	-6.279
N -1.537	7.327	-0.281
C -1.729	6.802	1.092
C -0.574	7.283	1.961
O 0.362	7.777	1.043
C 0.174	6.107	2.594
H -0.976	8.108	-0.448
H -1.7	5.728	1.008
H -0.879	8.034	2.681
H 0.297	7.253	0.241
H 0.449	5.394	1.83
H 1.069	6.466	3.079
H -0.445	5.63	3.31
H -2.000455782312925	4.7249795918367345	-5.901020408163266
H -2.724315436241611	7.092120805369127	1.5121006711409397
