65

H 7.44	-2.278	-6.341
H 7.686	-2.942	-4.745
H 5.054	-3.026	-6.848
H 2.82	-2.742	-5.683
H 6.511	-0.791	-2.552
H 1.774	-1.694	-3.239
H 4.91	-0.141	-0.857
H 2.529	-0.586	-1.191
C 3.975	5.769	-3.389
O 4.488	6.708	-3.964
N 4.489	4.551	-3.405
C 5.769	4.262	-4.149
C 5.578	3.329	-5.325
O 4.494	3.054	-5.694
C 6.733	3.564	-3.193
C 6.005	2.516	-2.343
C 6.883	2.23	-1.121
O 7.097	1.095	-0.765
N 7.432	3.248	-0.464
H 4.032	3.832	-2.935
H 6.189	5.186	-4.498
H 7.489	3.07	-3.75
H 7.194	4.288	-2.566
H 5.064	2.872	-2.016
H 5.871	1.61	-2.912
H 7.272	4.149	-0.761
H 7.997	3.081	0.32
N 6.692	2.858	-5.882
C 6.632	1.931	-7.043
C 7.243	0.587	-6.668
O 7.484	-0.259	-7.505
C 7.48	2.521	-8.154
C 8.494	3.493	-7.549
C 9.587	3.788	-8.582
C 8.937	4.198	-9.906
N 8.484	2.995	-10.66
H 7.574	3.121	-5.521
H 5.612	1.801	-7.353
H 8.0	1.727	-8.654
H 6.849	3.036	-8.855
H 7.998	4.411	-7.272
H 8.941	3.053	-6.672
H 10.216	4.589	-8.224
H 10.19	2.905	-8.733
H 8.085	4.833	-9.71
H 9.651	4.742	-10.506
H 8.847	2.138	-10.196
H 7.445	2.966	-10.677
H 8.846	3.04	-11.634
N 7.474	0.443	-5.412
C 8.074	-0.815	-4.869
C 7.283	-2.1	-5.288
C 5.734	-2.048	-5.024
C 4.852	-2.577	-5.887
C 5.085	-1.58	-3.925
N 3.666	-2.423	-5.289
C 3.717	-1.816	-4.076
C 5.495	-0.968	-2.736
C 2.814	-1.463	-3.106
C 4.574	-0.615	-1.767
C 3.241	-0.862	-1.954
H 7.272	1.182	-4.816
H 8.139	-0.73	-3.803
H 3.051563758389262	5.903013422818792	-2.8285167785234897
H 9.098758389261745	-0.9119463087248322	-5.233805369127516
