49

C 1.395	1.074	1.526
C 2.448	2.084	1.886
O 2.165	3.038	2.592
C 0.479	1.71	0.51
S 1.219	2.223	-1.067
H 1.865	0.178	1.129
H -0.295	1.015	0.308
H 0.028	2.575	0.963
N 3.645	1.873	1.409
C 4.703	2.837	1.735
C 4.822	3.874	0.608
O 3.988	3.908	-0.272
C 6.045	2.098	1.918
C 6.196	1.635	3.365
C 5.178	0.967	3.988
C 7.361	1.885	4.066
C 5.308	0.547	5.296
C 7.495	1.468	5.373
C 6.469	0.795	5.999
O 6.598	0.38	7.308
H 3.831	1.093	0.847
H 4.422	3.32	2.622
H 6.083	1.245	1.27
H 6.853	2.763	1.692
H 4.268	0.786	3.459
H 8.173	2.412	3.587
H 4.495	0.025	5.773
H 8.411	1.669	5.909
H 7.366	-0.193	7.363
N 5.83	4.722	0.659
C 5.968	5.745	-0.437
C 7.429	6.038	-0.762
O 8.322	5.746	0.008
C 5.28	7.058	-0.068
O 6.322	7.922	0.364
C 4.317	6.894	1.128
H 6.472	4.689	1.397
S 0.831	4.2	-1.221
H 5.512	5.33	-1.334
H 4.786	7.486	-0.935
H 6.841	7.475	1.039
H 4.799	6.372	1.929
H 4.002	7.866	1.477
N 7.623	6.603	-1.919
H 3.447	6.334	0.817
H 6.853	6.804	-2.492
H 1.5087458563535914	4.5869613259668505	-2.3413093922651935
H 0.812687074829932	0.8265170068027211	2.3856394557823126
H 8.571530612244898	6.8416938775510205	-2.2430408163265305
