53

C 1.766	-1.532	0.509
S 2.737	-1.209	1.997
H 1.876	-3.529	2.199
H 0.694	-3.085	-0.466
H 2.183	-0.969	-0.326
H 0.768	-1.148	0.696
N 2.865	-3.077	-1.886
H 2.028	-2.822	-2.369
C -1.848	-0.369	4.671
O -0.94	-0.964	5.236
N -1.726	0.394	3.571
C -0.633	1.327	3.481
C -1.163	2.667	2.957
O -2.332	3.011	3.075
C 0.4	0.719	2.527
S 1.288	-0.649	3.325
H -2.013	-0.015	2.721
H -0.16	1.369	4.459
H -0.131	0.342	1.659
H 1.126	1.45	2.163
N -0.188	3.375	2.378
C -0.461	4.673	1.784
C -1.356	4.537	0.547
O -0.876	4.208	-0.53
C 0.87	5.276	1.335
H 0.686	3.083	2.756
H -0.88	5.311	2.561
H 0.871	6.358	1.465
H 1.698	4.865	1.913
H 1.057	5.062	0.282
N -2.655	4.837	0.776
C -3.68	3.814	0.59
C -4.979	4.362	1.17
C -5.83	3.263	1.806
C -7.31	3.651	1.749
O -7.737	4.459	2.572
O -8.017	3.141	0.882
H -2.812	5.51	1.496
H -3.354	2.966	1.177
H -4.738	5.126	1.907
H -5.541	4.862	0.383
H -5.692	2.319	1.279
H -5.543	3.108	2.846
C 0.468	-4.693	1.426
O -0.631	-4.69	0.883
N 1.408	-3.749	1.348
C 1.599	-2.994	0.134
C 2.821	-3.513	-0.619
O 3.651	-4.243	-0.09
H -2.8558926174496646	-0.40669127516778525	5.0088255033557045
H -3.871738255033557	3.5080805369127517	-0.45486577181208065
H 0.8169932885906039	-5.471953020134228	2.047208053691275
H 3.763571428571429	-2.9451632653061224	-2.314122448979592
