53

H -4.898	-6.422	-1.618
H -4.428	-6.259	0.069
H -4.216	-4.242	-2.027
H -3.786	-4.074	-0.316
C -3.947	3.388	-0.865
O -4.916	2.701	-1.163
N -3.037	3.835	-1.734
C -2.759	3.058	-2.934
C -1.394	2.352	-2.847
O -0.676	2.208	-3.83
H -2.438	4.535	-1.349
H -3.557	2.32	-3.029
H -2.78	3.747	-3.781
N -1.098	1.928	-1.604
C -0.157	0.875	-1.328
C -0.958	-0.265	-0.694
O -1.701	-0.073	0.261
C 0.896	1.47	-0.39
C 2.065	2.013	-1.154
C 1.898	3.137	-2.04
C 3.368	1.422	-0.994
C 3.03	3.679	-2.745
C 4.501	1.959	-1.699
C 4.331	3.088	-2.574
H -1.543	2.3	-0.796
H 0.29	0.541	-2.261
H 0.447	2.289	0.18
H 1.272	0.731	0.313
H 0.919	3.566	-2.186
H 3.493	0.566	-0.346
H 2.904	4.529	-3.399
H 5.478	1.518	-1.568
H 5.181	3.492	-3.103
N -0.788	-1.45	-1.302
C -1.881	-2.399	-1.209
C -1.525	-3.683	-1.96
O -0.663	-3.706	-2.83
C -3.155	-1.765	-1.771
H 0.056	-1.67	-1.792
H -2.003	-2.633	-0.154
H -3.928	-1.702	-1.006
H -2.959	-0.755	-2.133
H -3.557	-2.359	-2.592
N -2.241	-4.757	-1.558
C -1.673	-6.094	-1.496
C -2.854	-7.025	-1.21
C -4.08	-6.137	-0.957
C -3.651	-4.687	-1.208
H -0.947	-6.141	-0.685
H -3.027	-7.688	-2.058
H -2.649	-7.649	-0.341
H -3.7606375838926174	3.6853422818791945	0.15057046979865785
H -1.1782147651006711	-6.375503355704698	-2.433865771812081
