67

N 0.29	-6.056	-2.858
C 1.284	-6.752	-3.664
C 0.951	-8.259	-3.757
O 0.152	-8.778	-2.987
C 2.656	-6.477	-3.028
C 3.809	-7.288	-3.61
C 2.581	-6.605	-1.504
C 4.09	-8.482	-2.726
H 0.548	-5.234	-2.346
H 1.209	-6.289	-4.646
H 2.919	-5.448	-3.232
H 3.596	-7.625	-4.619
H 4.7	-6.664	-3.676
H 2.027	-7.494	-1.2
H 3.575	-6.658	-1.057
H 2.065	-5.74	-1.09
H 4.823	-8.232	-1.96
H 3.158	-8.749	-2.242
H 4.444	-9.328	-3.312
N 1.588	-8.928	-4.753
C 2.025	-10.318	-4.646
C 2.553	-10.833	-3.308
O 3.634	-11.405	-3.242
C 3.188	-10.393	-5.625
C 3.0	-9.241	-6.624
C 1.893	-8.347	-6.056
H 1.217	-10.971	-4.974
H 4.109	-10.274	-5.048
H 3.225	-11.36	-6.12
H 3.927	-8.68	-6.746
H 2.716	-9.627	-7.604
H 2.218	-7.312	-5.987
H 1.005	-8.377	-6.688
N 1.731	-10.616	-2.271
C 1.249	-11.723	-1.47
C 0.572	-11.18	-0.216
O -0.556	-10.704	-0.224
C 2.319	-12.794	-1.183
C 3.689	-12.316	-0.775
N 4.778	-13.212	-0.361
C 4.18	-11.066	-0.705
C 5.819	-12.422	-0.053
N 5.557	-11.113	-0.19
H 1.457	-9.681	-2.045
H 0.468	-12.193	-2.035
H 1.928	-13.412	-0.365
H 2.422	-13.433	-2.064
H 4.741	-14.21	-0.407
H 3.66	-10.176	-0.992
H 6.813	-12.805	0.153
N 1.369	-11.301	0.843
C 0.78	-11.501	2.15
C 1.827	-11.263	3.235
C 3.099	-12.08	3.011
C 3.31	-13.045	4.181
O 3.09	-12.643	5.322
O 3.694	-14.188	3.937
H 2.285	-11.55	0.54
H 0.45	-12.536	2.153
H 2.077	-10.202	3.23
H 1.403	-11.512	4.212
H 3.033	-12.652	2.086
H 3.965	-11.422	2.937
C -0.984	-6.486	-2.802
O -1.559	-7.119	-3.679
H -1.4649127516778524	-6.212389261744967	-1.8904295302013423
H -0.06307382550335572	-10.802986577181208	2.2778255033557047
