58

C -0.81	-3.027	23.829
O -0.559	-3.976	24.562
N -2.039	-2.482	23.684
C -3.255	-3.273	23.831
C -3.522	-4.245	22.671
O -4.629	-4.741	22.499
C -4.39	-2.25	23.88
C -3.776	-0.878	23.573
C -2.266	-1.069	23.436
H -3.205	-3.841	24.76
H -5.156	-2.496	23.146
H -4.862	-2.247	24.862
H -4.185	-0.485	22.643
H -4.0	-0.17	24.369
H -1.948	-0.803	22.429
H -1.713	-0.466	24.156
N -2.445	-4.487	21.894
C -2.531	-4.631	20.447
C -3.982	-4.56	19.948
O -4.81	-5.415	20.237
C -1.96	-5.989	20.072
C -1.946	-6.217	18.56
C -0.574	-6.201	20.681
H -1.554	-4.534	22.339
H -1.927	-3.828	20.019
H -2.644	-6.705	20.51
H -1.269	-7.031	18.301
H -2.938	-6.482	18.199
H -1.622	-5.322	18.03
H 0.166	-5.574	20.183
H -0.571	-5.95	21.742
H -0.258	-7.24	20.581
N -4.217	-3.483	19.184
C -5.39	-2.67	19.465
C -6.594	-3.565	19.806
O -6.799	-3.949	20.951
C -5.659	-1.683	18.323
C -5.717	-0.262	18.891
O -4.685	0.237	19.336
O -6.796	0.329	18.879
H -3.474	-3.199	18.584
H -5.131	-2.091	20.346
H -4.862	-1.733	17.584
H -6.598	-1.871	17.807
N -7.379	-3.878	18.752
C -7.059	-4.928	17.797
C -8.097	-4.772	16.681
C -9.128	-3.737	17.152
C -8.631	-3.187	18.491
H -7.169	-5.899	18.281
H -7.617	-4.419	15.77
H -8.577	-5.725	16.462
H -9.223	-2.934	16.422
H -10.109	-4.198	17.266
H -8.466	-2.111	18.448
H -9.342	-3.397	19.29
H -0.04849664429530198	-2.557953020134228	23.241993288590603
H -6.042859060402685	-4.854751677852349	17.38264429530201
