62

C -2.694	4.7	-18.201
C -3.714	5.453	-19.057
C -2.314	3.364	-18.84
C -4.396	4.546	-20.082
H -1.204	4.066	-16.234
H -3.442	5.457	-16.33
H -1.793	5.311	-18.14
H -4.468	5.904	-18.411
H -3.219	6.276	-19.573
H -2.137	3.482	-19.91
H -3.109	2.63	-18.708
H -1.407	2.962	-18.389
H -3.741	4.364	-20.933
H -5.314	5.0	-20.455
H -4.651	3.582	-19.642
N -4.554	2.622	-15.97
C -5.168	1.382	-16.411
C -6.604	1.653	-16.867
O -6.915	1.657	-18.052
C -5.158	0.35	-15.283
C -5.397	-1.049	-15.855
O -5.253	-1.223	-17.065
O -5.726	-1.95	-15.084
H -4.153	2.759	-15.065
H -4.581	1.036	-17.262
H -4.201	0.357	-14.763
H -5.937	0.571	-14.554
N -7.45	1.881	-15.846
C -8.76	1.259	-15.884
C -9.364	1.401	-17.284
O -9.528	0.386	-17.959
C -9.674	1.915	-14.848
C -10.406	0.879	-13.995
C -11.489	0.191	-14.829
O -11.158	-0.724	-15.581
O -12.651	0.578	-14.715
O -9.663	2.525	-17.682
H -7.185	2.468	-15.081
H -8.611	0.202	-15.661
H -9.085	2.568	-14.204
H -10.402	2.551	-15.353
H -9.711	0.125	-13.626
H -10.872	1.352	-13.131
C 0.197	3.875	-13.637
O 0.273	4.778	-14.461
N -0.318	2.653	-13.874
C -1.747	2.468	-14.085
C -2.395	3.742	-14.654
O -3.046	4.508	-13.955
C -2.379	2.028	-12.755
C -3.838	2.478	-12.617
O -4.719	1.78	-13.113
O -4.073	3.524	-12.013
H 0.273	1.846	-13.843
H -1.825	1.677	-14.831
H -2.345	0.94	-12.669
H -1.811	2.45	-11.923
N -2.155	3.919	-15.968
C -3.22	4.493	-16.781
C -4.502	3.641	-16.843
O -5.392	3.902	-17.642
H 0.5473892617449665	3.9936577181208053	-12.635389261744967
