69

H -4.085	-1.385	9.34
H -3.831	-1.132	15.686
H -1.661	-0.152	15.797
H -3.273	-1.203	11.962
H -4.891	-0.529	12.059
H -3.374	0.464	17.346
H -2.845	-0.752	18.522
N -6.384	-0.03	9.79
H -0.406	1.229	16.495
H -2.39	0.838	20.359
N -0.469	-2.539	16.075
C 0.334	2.802	19.494
H 1.215	2.874	17.492
H -0.772	2.488	21.357
H -6.596	-0.997	9.664
H 1.026	3.512	19.922
H -1.218	-2.583	15.42
O -2.065	-1.362	8.257
C -0.696	2.22	20.313
C -0.672	1.679	9.587
C -0.754	1.883	11.101
C -5.144	0.484	9.762
C -0.218	3.267	11.469
C -0.493	1.502	17.536
O 0.795	3.411	12.143
N -0.97	4.268	10.978
H 0.161	0.5	7.191
H 0.017	-0.307	10.064
O -4.873	1.658	9.537
H 0.184	2.218	9.223
H -1.567	2.048	9.065
H -1.776	1.793	11.468
C 1.569	-0.393	8.243
H -0.156	1.121	11.606
O 1.959	-1.021	9.217
H -1.959	4.129	10.859
C -5.644	-4.826	17.22
O -4.792	-5.677	17.442
H -0.53	5.139	10.738
C 0.438	2.441	18.105
N -2.756	0.056	9.917
N 0.323	0.06	8.074
C -0.502	0.2	9.253
C -4.06	-0.554	10.046
C -1.865	-0.463	9.063
N -5.461	-3.73	16.463
C -4.31	-3.638	15.595
C -3.183	-2.932	16.359
O -2.499	-3.543	17.171
C -4.74	-2.971	14.288
S -3.967	-3.724	12.845
H -6.083	-2.954	16.498
H -3.996	-4.652	15.371
H -5.818	-3.103	14.186
H -4.54	-1.9	14.27
N -3.051	-1.621	16.071
C -1.958	-0.82	16.598
C -0.763	-1.655	17.024
O -0.182	-1.508	18.091
C -2.513	-0.048	17.761
C -1.53	0.922	18.349
C -1.624	1.281	19.741
C -4.231	-1.14	11.444
S -4.922	-2.799	11.317
H -2.236	0.588	10.588
H -6.63165100671141	-4.897194630872483	17.622738255033557
H 0.2970408163265307	-3.1787551020408165	16.207530612244895
H 2.2216174496644294	-0.1326510067114094	7.438919463087249
H -7.168775510204082	0.5833877551020408	9.719224489795918
