48

C -7.515	0.854	9.688
C -7.838	1.509	11.043
O -8.309	2.639	11.104
C -8.697	0.017	9.204
C -9.117	0.301	7.76
C -9.095	1.804	7.47
O -10.004	2.544	7.825
N -7.996	2.194	6.8
H -7.238	1.624	8.97
H -8.484	-1.05	9.321
H -9.521	0.234	9.865
H -8.461	-0.206	7.054
H -10.126	-0.078	7.591
H -7.664	1.641	6.029
H -7.52	3.033	7.084
N -7.564	0.747	12.131
C -8.009	-0.629	12.286
C -9.474	-0.873	11.97
O -10.362	-0.121	12.348
C -7.803	-0.95	13.757
C -6.879	0.137	14.321
C -6.833	1.26	13.278
H -7.396	-1.28	11.662
H -8.77	-0.937	14.262
H -7.394	-1.95	13.866
H -7.259	0.504	15.274
H -5.882	-0.27	14.49
H -7.312	2.167	13.649
H -5.809	1.499	12.993
N -9.617	-1.981	11.224
C -10.737	-2.896	11.334
C -11.719	-2.516	12.455
C -13.009	-3.331	12.419
C -12.896	-4.577	13.301
C -14.2	-2.475	12.851
H -8.921	-2.169	10.532
H -10.296	-3.852	11.566
H -11.242	-2.658	13.423
H -12.009	-1.474	12.369
H -13.183	-3.633	11.389
H -11.975	-5.121	13.098
H -12.896	-4.304	14.356
H -13.735	-5.252	13.132
H -14.476	-2.686	13.884
H -13.963	-1.414	12.774
H -15.069	-2.673	12.223
H -6.691755102040816	0.21054421768707476	9.762244897959183
H -11.226758389261745	-2.8981543624161072	10.351610738255033
