47

O -19.621	3.599	11.311
C -11.419	-2.899	9.966
O -11.232	-3.737	9.095
O -15.541	5.327	9.799
C -15.72	2.386	10.943
C -14.576	3.391	10.829
C -15.066	4.825	11.023
C -16.172	4.91	12.076
C -17.283	3.88	11.848
C -18.623	4.557	11.556
C -12.275	3.197	11.469
C -11.581	1.84	11.34
N -13.567	3.092	11.827
O -16.949	3.047	10.764
N -12.136	-1.784	9.878
C -13.552	-1.732	9.56
C -13.88	-2.595	8.347
O -13.492	-2.305	7.222
H -15.71	1.878	11.908
C -13.952	-0.282	9.279
C -15.01	0.186	10.28
O -15.293	-0.463	11.28
N -15.568	1.359	9.93
H -11.64	-1.144	10.448
H -14.076	-2.129	10.428
H -14.366	-0.193	8.271
H -15.839	1.526	8.982
N -14.63	-3.669	8.666
H -13.084	0.376	9.361
H -13.824	2.816	12.753
H -17.382	3.262	12.74
H -15.953	6.16	9.988
O -11.684	4.25	11.258
H -14.079	3.29	9.865
H -12.096	1.102	11.955
H -11.598	1.509	10.301
H -14.908	-3.815	9.615
H -16.101	5.271	13.948
H -14.23	5.454	11.326
H -20.35	4.06	10.917
H -16.603	5.911	12.063
H -18.55	5.201	10.68
H -18.941	5.171	12.399
O -15.614	4.718	13.351
H -10.545	1.92	11.669
H -10.942973154362416	-2.896906040268456	10.920845637583891
H -14.913102040816327	-4.326102040816326	7.953387755102041
