61

H -5.657	-9.284	15.085
C -15.038	-4.616	7.639
C -13.982	-4.719	6.532
O -14.291	-4.794	5.349
C -16.388	-4.199	7.052
C -16.32	-2.836	6.364
C -17.407	-2.736	5.291
O -18.212	-1.813	5.271
N -17.372	-3.749	4.406
H -15.121	-5.583	8.136
H -16.723	-4.952	6.339
H -17.136	-4.169	7.845
H -16.464	-2.034	7.088
H -15.346	-2.69	5.896
H -16.493	-4.188	4.196
H -18.226	-4.047	3.969
N -12.722	-4.716	7.004
C -12.048	-5.998	7.127
C -12.387	-6.728	8.426
O -12.538	-7.943	8.485
C -10.537	-5.83	6.963
O -10.253	-4.546	6.467
C -9.945	-6.879	6.021
H -12.277	-3.86	7.269
H -12.483	-6.582	6.346
H -10.057	-5.908	7.939
H -9.943	-4.032	7.201
H -9.761	-7.814	6.549
H -10.624	-7.086	5.194
H -8.999	-6.536	5.603
N -12.489	-5.876	9.442
C -11.79	-6.116	10.666
C -10.383	-6.631	10.38
O -10.123	-7.468	9.524
C -12.627	-6.996	11.571
O -12.746	-8.306	11.076
H -12.654	-4.935	9.181
H -11.714	-5.135	11.124
H -12.211	-7.029	12.577
H -13.615	-6.541	11.62
H -13.35	-8.76	11.648
N -9.521	-6.027	11.201
C -8.52	-5.093	10.708
C -7.825	-4.48	11.931
C -7.084	-5.525	12.719
C -5.782	-5.976	12.291
C -7.676	-6.103	13.898
C -5.095	-7.01	13.017
C -6.991	-7.135	14.629
C -5.701	-7.592	14.185
O -5.047	-8.588	14.879
H -9.891	-5.913	12.118
H -9.037	-4.328	10.102
H -7.133	-3.687	11.643
H -8.58	-4.03	12.577
H -5.306	-5.531	11.429
H -8.634	-5.75	14.249
H -4.124	-7.35	12.687
H -7.443	-7.564	15.511
H -14.741020408163266	-3.926687074829932	8.386544217687074
H -7.783208053691275	-5.610765100671141	10.084671140939598
