53

N 18.619	-3.096	1.262
C 17.988	-4.084	0.402
C 18.8	-4.211	-0.855
O 19.64	-3.345	-1.135
C 16.553	-3.692	0.087
H 18.728	-2.186	0.775
H 18.068	-2.956	2.132
H 19.564	-3.427	1.537
H 17.986	-5.034	0.916
H 16.545	-2.749	-0.44
H 16.101	-4.453	-0.532
H 15.994	-3.597	1.006
N 18.569	-5.266	-1.616
C 19.329	-5.508	-2.816
C 18.973	-4.495	-3.913
O 19.858	-3.865	-4.501
C 19.104	-6.941	-3.297
O 19.404	-7.886	-2.26
H 17.866	-5.905	-1.358
H 20.372	-5.388	-2.565
H 18.071	-7.056	-3.59
H 19.744	-7.139	-4.145
H 19.45	-7.405	-1.42
N 17.698	-4.315	-4.158
C 17.246	-3.407	-5.183
C 16.553	-2.199	-4.541
O 15.891	-2.344	-3.494
C 16.278	-4.136	-6.151
O 15.222	-4.771	-5.399
C 17.012	-5.195	-6.968
H 17.002	-4.782	-3.646
H 18.109	-3.07	-5.739
H 15.843	-3.407	-6.82
H 14.932	-5.556	-5.882
H 17.44	-5.929	-6.301
H 16.315	-5.683	-7.634
H 17.797	-4.733	-7.547
N 16.731	-1.02	-5.111
C 16.074	0.15	-4.608
C 16.889	1.419	-4.894
C 16.216	2.676	-4.371
C 16.949	3.954	-4.715
O 17.813	4.413	-3.97
N 16.598	4.555	-5.828
H 17.307	-0.905	-5.895
H 15.955	0.035	-3.542
H 17.863	1.33	-4.435
H 17.006	1.522	-5.962
H 15.228	2.71	-4.804
H 16.136	2.583	-3.297
H 15.888	4.162	-6.38
H 17.054	5.387	-6.077
H 15.093765100671142	0.23258389261744966	-5.083395973154362
