32

C 5.216	2.67	8.413
C 5.78	1.976	7.194
O 5.036	1.385	6.42
C 5.326	1.774	9.66
C 6.753	1.462	10.066
C 7.565	2.723	10.257
O 8.128	3.227	9.273
O 7.63	3.246	11.394
H 5.776	3.577	8.586
H 4.842	2.276	10.485
H 4.815	0.843	9.467
H 6.752	0.894	10.983
H 7.196	0.882	9.27
N 7.063	2.079	7.022
C 7.755	1.505	5.906
C 8.435	2.628	5.096
C 7.378	3.593	4.608
C 9.224	2.075	3.909
C 7.909	4.939	4.312
H 7.595	2.556	7.704
H 7.043	0.997	5.272
H 9.111	3.167	5.742
H 6.966	3.218	3.681
H 6.599	3.682	5.351
H 8.558	1.534	3.253
H 9.659	2.91	3.377
H 10.004	1.419	4.262
H 8.68	4.878	3.56
H 7.091	5.558	3.975
H 8.304	5.345	5.232
H 4.2238843537414965	2.9364081632653063	8.236122448979591
H 8.501845637583893	0.8019597315436241	6.272241610738256
