55

C 6.957	-3.374	2.27
C 6.575	-2.169	3.099
O 7.422	-1.535	3.722
C 6.426	-4.673	2.896
O 7.218	-5.027	4.04
C 6.462	-5.817	1.898
H 6.496	-3.252	1.305
H 5.403	-4.503	3.198
H 7.308	-5.988	4.006
H 7.476	-5.962	1.555
H 6.117	-6.718	2.381
H 5.819	-5.597	1.06
N 5.332	-1.819	3.062
C 4.838	-0.741	3.844
C 3.579	-1.164	4.535
O 2.792	-1.95	3.99
C 4.574	0.468	2.978
H 4.692	-2.283	2.475
H 5.584	-0.479	4.581
H 3.825	0.204	2.247
H 4.217	1.282	3.59
H 5.483	0.759	2.474
N 3.405	-0.691	5.725
C 2.221	-0.946	6.469
C 1.293	0.201	6.216
O 1.639	1.365	6.472
C 2.539	-1.082	7.93
H 4.092	-0.102	6.116
H 1.772	-1.858	6.106
H 3.011	-0.171	8.27
H 1.627	-1.264	8.478
H 3.21	-1.92	8.038
N 0.15	-0.095	5.699
C -0.759	0.918	5.26
C -2.11	0.75	5.917
O -2.5	-0.361	6.262
C -0.905	0.874	3.701
C -1.395	-0.499	3.215
C 0.385	1.248	3.006
C -2.864	-0.559	2.978
H -0.111	-1.041	5.603
H -0.349	1.879	5.526
H -1.642	1.615	3.427
H -0.902	-0.822	2.313
H -1.176	-1.213	3.996
H 1.165	0.561	3.299
H 0.227	1.185	1.94
H 0.657	2.256	3.279
H -3.081	0.195	2.233
H -3.143	-1.533	2.607
H -3.391	-0.329	3.892
N -2.786	1.838	6.122
H -2.379	2.709	5.902
H 7.9804149659863945	-3.427136054421769	2.1287891156462586
H -3.7046938775510205	1.831061224489796	6.497387755102041
