72

H -6.996	-1.659	4.724
H -6.018	-0.544	0.021
H -5.718	-3.233	3.336
H -5.224	-2.685	0.977
N -8.013	4.192	4.22
C -8.732	5.373	4.627
C -10.225	5.134	4.599
O -10.761	4.57	3.631
C -8.369	6.537	3.733
H -7.537	4.202	3.359
H -8.429	5.617	5.635
H -8.685	6.325	2.722
H -8.869	7.426	4.087
H -7.3	6.694	3.751
N -10.881	5.495	5.668
C -12.304	5.361	5.742
C -12.706	4.061	6.374
O -13.374	4.044	7.409
H -10.384	5.839	6.444
H -12.707	6.177	6.322
H -12.708	5.399	4.74
N -12.271	2.971	5.776
H -11.713	3.068	4.976
C -0.759	0.918	5.26
C -2.11	0.75	5.917
O -2.5	-0.361	6.262
C -0.905	0.874	3.701
C -1.395	-0.499	3.215
C 0.385	1.248	3.006
C -2.864	-0.559	2.978
H -0.349	1.879	5.526
H -1.642	1.615	3.427
H -0.902	-0.822	2.313
H -1.176	-1.213	3.996
H 1.165	0.561	3.299
H 0.227	1.185	1.94
H 0.657	2.256	3.279
H -3.081	0.195	2.233
H -3.143	-1.533	2.607
H -3.391	-0.329	3.892
N -2.786	1.838	6.122
C -4.11	1.828	6.663
C -5.089	2.391	5.635
O -4.879	3.477	5.089
C -4.167	2.622	7.985
O -3.261	2.009	8.914
C -5.572	2.623	8.579
H -2.379	2.709	5.902
H -4.375	0.8	6.86
H -3.849	3.636	7.795
H -2.744	1.361	8.421
H -5.88	1.607	8.777
H -5.573	3.194	9.495
H -6.251	3.071	7.869
N -6.116	1.624	5.353
C -7.128	1.993	4.392
C -8.002	3.088	4.929
O -8.669	2.913	5.96
C -7.966	0.79	3.981
C -7.211	-0.2	3.158
C -6.925	0.09	1.836
C -6.771	-1.407	3.695
C -6.221	-0.795	1.052
C -6.056	-2.298	2.916
C -5.783	-1.991	1.589
H -6.205	0.781	5.854
H -6.617	2.365	3.519
H -8.327	0.287	4.868
H -8.809	1.134	3.401
H -7.282	1.024	1.424
H -0.09734693877551015	0.18064625850340132	5.579544217687075
H -12.504836734693878	2.0557755102040813	6.107673469387755
