57

H 3.559	-5.43	-2.951
H 4.32	-6.951	-2.46
H 2.304	-5.85	-1.071
H 3.611	-6.717	-0.247
C -2.146	-4.426	5.831
C -0.737	-4.024	5.465
O -0.443	-2.828	5.311
C -2.866	-5.087	4.621
C -2.833	-4.349	3.293
C -3.255	-5.276	2.154
O -4.465	-5.391	1.859
O -2.372	-5.947	1.572
H -2.082	-5.141	6.638
H -2.431	-6.053	4.428
H -3.908	-5.196	4.891
H -3.508	-3.507	3.342
H -1.828	-4.0	3.105
N 0.129	-4.986	5.374
C 1.483	-4.76	4.966
C 1.607	-5.202	3.526
O 1.467	-6.388	3.208
C 2.5	-5.515	5.868
C 3.925	-5.3	5.385
C 2.37	-5.056	7.312
H -0.152	-5.905	5.569
H 1.669	-3.698	5.019
H 2.279	-6.571	5.826
H 4.154	-4.244	5.392
H 4.61	-5.823	6.037
H 4.02	-5.684	4.381
H 1.357	-5.208	7.654
H 3.055	-5.612	7.934
H 2.608	-4.005	7.372
N 1.835	-4.27	2.675
C 1.875	-4.52	1.257
C 3.167	-3.92	0.673
O 3.648	-2.894	1.167
C 0.584	-3.971	0.546
O 0.54	-4.359	-0.837
C 0.496	-2.462	0.647
H 2.01	-3.362	3.022
H 1.919	-5.593	1.135
H -0.28	-4.399	1.031
H -0.278	-4.855	-0.958
H 1.349	-2.02	0.155
H -0.414	-2.121	0.177
H 0.497	-2.182	1.689
N 3.815	-4.611	-0.287
C 5.056	-4.14	-0.904
C 5.383	-5.219	-1.94
C 4.116	-5.931	-2.173
C 3.366	-5.878	-0.878
H 5.863	-4.073	-0.193
H 5.742	-4.757	-2.846
H 6.133	-5.889	-1.547
H -2.6482448979591835	-3.5954761904761905	6.208775510204082
H 4.943255033557047	-3.167664429530201	-1.3930402684563759
