57

C -9.169	0.191	9.009
O -8.9	-0.256	10.129
N -8.845	-0.458	7.898
C -8.037	-1.694	7.988
C -6.616	-1.375	7.715
O -6.31	-0.306	7.218
C -8.44	-2.82	7.029
C -9.728	-3.522	7.352
O -10.188	-3.542	8.491
N -10.264	-4.182	6.378
H -9.1	-0.093	7.026
H -8.112	-2.048	9.007
H -8.529	-2.407	6.036
H -7.643	-3.549	7.016
H -9.793	-4.182	5.516
H -11.111	-4.651	6.511
N -5.766	-2.304	7.976
C -4.367	-2.133	7.77
C -3.794	-3.409	7.224
O -4.275	-4.502	7.561
C -3.677	-1.754	9.078
H -6.066	-3.177	8.312
H -4.216	-1.337	7.057
H -3.829	-2.539	9.804
H -2.62	-1.624	8.904
H -4.098	-0.833	9.454
N -2.836	-3.285	6.35
C -2.146	-4.426	5.831
C -0.737	-4.024	5.465
O -0.443	-2.828	5.311
C -2.866	-5.087	4.621
C -2.833	-4.349	3.293
C -3.255	-5.276	2.154
O -4.465	-5.391	1.859
O -2.372	-5.947	1.572
H -2.558	-2.389	6.056
H -2.082	-5.141	6.638
H -2.431	-6.053	4.428
H -3.908	-5.196	4.891
H -3.508	-3.507	3.342
H -1.828	-4.0	3.105
N 0.129	-4.986	5.374
C 1.483	-4.76	4.966
C 2.5	-5.515	5.868
C 3.925	-5.3	5.385
C 2.37	-5.056	7.312
H -0.152	-5.905	5.569
H 1.669	-3.698	5.019
H 2.279	-6.571	5.826
H 4.154	-4.244	5.392
H 4.61	-5.823	6.037
H 4.02	-5.684	4.381
H 1.357	-5.208	7.654
H 3.055	-5.612	7.934
H 2.608	-4.005	7.372
H -9.680624161073824	1.1221140939597314	8.92244966442953
H 1.572046979865772	-5.077409395973154	3.9319060402684562
