58

N 5.973	-2.016	-1.597
C 6.012	-0.689	-2.222
C 5.676	-0.775	-3.704
O 5.195	0.186	-4.294
C 7.388	-0.046	-2.035
C 7.875	0.098	-0.59
C 9.237	0.739	-0.545
C 6.894	0.878	0.263
H 6.785	-2.345	-1.147
H 5.268	-0.065	-1.75
H 8.107	-0.644	-2.574
H 7.362	0.937	-2.481
H 7.962	-0.896	-0.18
H 9.193	1.721	-0.993
H 9.561	0.825	0.483
H 9.936	0.126	-1.093
H 5.94	0.373	0.272
H 7.274	0.933	1.272
H 6.775	1.878	-0.125
N 5.946	-1.937	-4.291
C 5.643	-2.198	-5.695
C 4.132	-2.174	-5.929
O 3.667	-1.833	-7.016
C 6.25	-3.558	-6.126
C 5.484	-4.842	-5.757
C 4.48	-5.196	-6.842
C 6.438	-5.984	-5.526
H 6.395	-2.628	-3.754
H 6.075	-1.418	-6.298
H 6.369	-3.553	-7.198
H 7.228	-3.622	-5.673
H 4.917	-4.665	-4.855
H 3.873	-4.319	-7.017
H 5.022	-5.444	-7.742
H 3.868	-6.032	-6.54
H 7.111	-5.727	-4.723
H 5.883	-6.87	-5.263
H 7.007	-6.165	-6.427
N 3.385	-2.538	-4.899
C 1.926	-2.613	-4.96
C 1.296	-1.296	-4.625
O 0.083	-1.123	-4.761
C 1.364	-3.696	-4.022
C 1.365	-5.088	-4.607
O 1.281	-5.275	-5.82
N 1.394	-6.072	-3.752
H 3.827	-2.74	-4.046
H 1.66	-2.875	-5.973
H 1.993	-3.726	-3.145
H 0.368	-3.455	-3.698
H 1.403	-5.854	-2.796
H 1.423	-6.992	-4.092
N 2.098	-0.367	-4.18
H 3.059	-0.537	-4.098
C 4.899	-2.786	-1.585
O 3.825	-2.46	-2.099
H 5.00858389261745	-3.7310738255033558	-1.1096711409395974
H 1.7482857142857142	0.5253265306122449	-3.943387755102041
