64

H 5.605	5.178	0.746
H 6.863	2.892	-1.823
H 5.227	2.818	-3.835
H 4.064	6.995	-0.726
H 3.077	4.352	-4.827
H 2.267	7.649	-2.225
H 1.772	6.352	-4.251
N 6.752	7.582	1.888
C 7.063	8.051	3.224
C 5.873	7.818	4.147
O 4.758	7.572	3.681
C 7.406	9.539	3.231
C 6.271	10.43	2.75
C 6.544	11.897	3.014
C 6.485	12.223	4.5
N 6.727	13.65	4.751
H 5.87	7.812	1.526
H 7.913	7.487	3.584
H 7.681	9.83	4.233
H 8.25	9.688	2.575
H 6.134	10.28	1.689
H 5.368	10.14	3.268
H 7.532	12.132	2.647
H 5.81	12.49	2.491
H 5.507	11.964	4.877
H 7.229	11.641	5.025
H 6.06	14.246	4.222
H 6.61	13.876	5.758
H 7.691	13.915	4.46
N 6.128	7.852	5.434
C 5.091	7.763	6.442
C 4.185	8.993	6.328
O 4.679	10.124	6.229
C 5.705	7.683	7.869
C 4.624	7.627	8.936
C 6.629	6.477	7.989
H 7.051	7.973	5.74
H 4.507	6.874	6.251
H 6.293	8.577	8.025
H 4.016	6.747	8.788
H 5.082	7.59	9.914
H 4.005	8.508	8.859
H 7.442	6.573	7.284
H 7.028	6.426	8.99
H 6.077	5.574	7.772
N 2.892	8.774	6.303
H 2.55	7.853	6.387
C 7.119	6.366	-0.159
C 7.598	6.857	1.188
O 8.745	6.611	1.567
C 6.368	5.061	-0.007
C 5.715	4.628	-1.269
C 6.056	3.573	-2.051
C 4.626	5.28	-1.915
N 5.207	3.503	-3.129
C 4.328	4.551	-3.072
C 3.865	6.409	-1.611
C 3.302	4.916	-3.934
C 2.855	6.774	-2.459
C 2.578	6.032	-3.611
H 6.443	7.093	-0.582
H 7.059	4.289	0.301
H 7.914585034013605	6.237163265306123	-0.8264761904761906
H 2.2466938775510203	9.533102040816326	6.2252857142857145
