59

C 5.873	7.818	4.147
O 4.758	7.572	3.681
N 6.128	7.852	5.434
C 5.091	7.763	6.442
C 4.185	8.993	6.328
O 4.679	10.124	6.229
C 5.705	7.683	7.869
C 4.624	7.627	8.936
C 6.629	6.477	7.989
H 7.051	7.973	5.74
H 4.507	6.874	6.251
H 6.293	8.577	8.025
H 4.016	6.747	8.788
H 5.082	7.59	9.914
H 4.005	8.508	8.859
H 7.442	6.573	7.284
H 7.028	6.426	8.99
H 6.077	5.574	7.772
N 2.892	8.774	6.303
C 1.962	9.868	6.191
C 1.695	10.239	4.754
O 1.207	11.344	4.462
H 2.55	7.853	6.387
H 1.03	9.587	6.658
H 2.365	10.728	6.703
N 2.026	9.344	3.847
C 1.777	9.582	2.432
C 0.535	8.864	2.061
O 0.17	7.858	2.7
C 2.871	9.008	1.559
C 3.194	9.863	0.333
O 2.267	10.414	-0.302
O 4.389	9.986	-0.032
H 2.439	8.505	4.136
H 1.683	10.643	2.248
H 3.722	8.819	2.178
H 2.519	8.047	1.211
N -0.086	9.318	1.051
C -1.244	8.685	0.564
C -2.298	9.711	0.145
C -2.971	10.448	1.288
C -3.957	9.555	2.015
C -4.687	10.311	3.104
N -5.793	9.518	3.669
H 0.292	10.088	0.574
H -1.63	8.069	1.36
H -1.833	10.443	-0.497
H -3.062	9.194	-0.416
H -2.216	10.768	1.989
H -3.494	11.309	0.898
H -4.683	9.18	1.308
H -3.424	8.726	2.457
H -3.984	10.545	3.891
H -5.08	11.229	2.692
H -5.455	8.629	4.084
H -6.266	10.046	4.43
H -6.502	9.3	2.93
H 6.703604026845637	7.980630872483221	3.502758389261745
H -0.962496644295302	8.078187919463087	-0.2762013422818793
