30

C -0.852	7.84	-0.606
O -0.169	8.297	-1.513
N -1.263	6.639	-0.586
C -1.002	5.746	-1.654
C -2.241	4.966	-1.942
O -3.252	5.105	-1.245
C 0.134	4.8	-1.284
S -0.161	3.82	0.219
H -1.756	6.307	0.197
H -0.713	6.315	-2.525
H 0.287	4.122	-2.11
H 1.033	5.38	-1.148
H -1.236	4.273	0.855
N -2.204	4.199	-2.961
C -3.27	3.317	-3.229
C -3.877	3.517	-4.613
C -4.21	4.956	-4.911
S -5.293	5.177	-6.327
C -6.808	4.427	-5.709
H -1.414	4.223	-3.548
H -4.025	3.467	-2.47
H -3.185	3.155	-5.358
H -4.785	2.937	-4.673
H -4.664	5.41	-4.043
H -3.261	5.426	-5.126
H -7.095	4.929	-4.796
H -7.594	4.53	-6.442
H -6.64	3.381	-5.499
H -1.1256107382550335	8.429798657718122	0.21064429530201334
H -2.87503355704698	2.3410738255033556	-3.1298993288590604
