49

C -3.562	-4.176	-4.485
C -4.487	-5.26	-5.019
C -2.985	-3.355	-5.635
H -5.16	-2.812	-3.946
H -2.744	-4.655	-3.969
H -5.324	-4.799	-5.523
H -3.946	-5.882	-5.715
H -4.848	-5.862	-4.198
H -2.29	-2.628	-5.244
H -2.473	-4.007	-6.327
H -3.787	-2.843	-6.148
N -6.036	-3.986	-2.001
C -6.605	-4.693	-0.891
C -6.503	-6.145	-1.182
O -7.143	-6.627	-2.117
C -8.071	-4.315	-0.702
C -8.65	-4.765	0.618
C -7.976	-4.915	1.786
C -10.018	-5.074	0.917
N -8.817	-5.308	2.781
C -10.077	-5.408	2.285
C -11.193	-5.104	0.174
C -11.261	-5.768	2.918
C -12.369	-5.459	0.808
C -12.389	-5.785	2.166
H -6.606	-3.432	-2.577
H -6.052	-4.453	0.004
H -8.166	-3.247	-0.804
H -8.643	-4.781	-1.491
H -6.916	-4.761	1.886
H -8.553	-5.483	3.712
H -11.195	-4.85	-0.875
H -11.301	-6.023	3.967
H -13.3	-5.485	0.264
H -13.331	-6.05	2.619
N -5.738	-6.836	-0.389
C -5.454	-8.244	-0.602
C -4.416	-8.725	0.43
O -3.948	-10.043	0.149
H -5.325	-6.358	0.37
H -5.026	-8.337	-1.588
H -3.57	-8.055	0.425
H -4.865	-8.716	1.412
H -3.299	-10.253	0.834
C -4.299	-3.259	-3.473
C -4.755	-4.058	-2.288
O -3.938	-4.69	-1.625
H -3.67665306122449	-2.5150952380952383	-3.1170612244897957
H -6.379657718120805	-8.857275167785236	-0.5725570469798658
