52

C -3.562	-4.176	-4.485
C -4.487	-5.26	-5.019
C -2.985	-3.355	-5.635
H -2.481	-2.407	-2.918
H -5.16	-2.812	-3.946
H -2.744	-4.655	-3.969
H -5.324	-4.799	-5.523
H -3.946	-5.882	-5.715
H -4.848	-5.862	-4.198
H -2.29	-2.628	-5.244
H -2.473	-4.007	-6.327
H -3.787	-2.843	-6.148
N -6.036	-3.986	-2.001
C -6.605	-4.693	-0.891
C -8.071	-4.315	-0.702
C -8.65	-4.765	0.618
C -7.976	-4.915	1.786
C -10.018	-5.074	0.917
N -8.817	-5.308	2.781
C -10.077	-5.408	2.285
C -11.193	-5.104	0.174
C -11.261	-5.768	2.918
C -12.369	-5.459	0.808
C -12.389	-5.785	2.166
H -6.606	-3.432	-2.577
H -6.052	-4.453	0.004
H -8.166	-3.247	-0.804
H -8.643	-4.781	-1.491
H -6.916	-4.761	1.886
H -8.553	-5.483	3.712
H -11.195	-4.85	-0.875
H -11.301	-6.023	3.967
H -13.3	-5.485	0.264
H -13.331	-6.05	2.619
C -2.72	1.958	-3.091
O -1.671	1.651	-3.662
N -3.382	1.166	-2.343
C -2.927	-0.145	-2.064
C -3.914	-1.105	-2.598
O -5.108	-0.789	-2.694
C -2.784	-0.334	-0.569
H -4.238	1.469	-1.964
H -1.961	-0.296	-2.521
H -3.734	-0.131	-0.096
H -2.485	-1.349	-0.352
H -2.044	0.352	-0.184
N -3.444	-2.237	-2.984
C -4.299	-3.259	-3.473
C -4.755	-4.058	-2.288
O -3.938	-4.69	-1.625
H -3.1038926174496644	2.906563758389262	-3.187322147651007
H -6.531751677852349	-5.735711409395973	-1.099973154362416
