57

C -6.743	-9.098	-0.561
O -6.78	-10.224	-1.061
N -7.804	-8.539	-0.011
C -9.055	-9.248	0.086
C -9.836	-9.181	-1.214
O -10.439	-10.166	-1.636
C -9.902	-8.662	1.186
C -9.252	-8.668	2.55
C -8.944	-10.048	3.056
O -9.822	-10.671	3.688
O -7.832	-10.529	2.85
H -7.724	-7.624	0.338
H -8.857	-10.28	0.327
H -10.132	-7.637	0.931
H -10.825	-9.215	1.237
H -8.352	-8.079	2.474
H -9.903	-8.149	3.235
N -9.812	-8.034	-1.857
C -10.671	-7.817	-3.032
C -9.868	-7.734	-4.327
O -10.389	-7.957	-5.409
C -11.451	-6.531	-2.826
C -12.507	-6.288	-3.855
O -13.629	-6.783	-3.688
O -12.256	-5.563	-4.81
H -9.206	-7.334	-1.535
H -11.375	-8.633	-3.097
H -11.931	-6.558	-1.859
H -10.751	-5.708	-2.859
N -8.594	-7.462	-4.2
C -7.72	-7.372	-5.36
C -7.812	-6.045	-6.103
O -7.353	-5.934	-7.239
H -8.207	-7.338	-3.303
H -6.698	-7.496	-5.032
H -7.968	-8.172	-6.042
N -8.399	-5.048	-5.482
C -8.541	-3.73	-6.105
C -7.745	-2.689	-5.362
O -7.299	-2.938	-4.244
C -10.0	-3.318	-6.216
C -10.799	-4.128	-7.208
C -10.336	-3.95	-8.635
O -10.816	-3.074	-9.339
N -9.426	-4.768	-9.084
H -8.719	-5.183	-4.566
H -8.123	-3.806	-7.096
H -10.465	-3.435	-5.248
H -10.05	-2.279	-6.501
H -10.725	-5.173	-6.947
H -11.824	-3.796	-7.136
H -9.074	-5.466	-8.488
H -9.137	-4.645	-10.013
N -7.593	-1.524	-5.949
H -8.046	-1.364	-6.807
H -5.843295302013423	-8.501919463087248	-0.5896174496644295
H -7.049	-0.7940408163265306	-5.514632653061224
