51

H -13.125	-0.406	-2.326
H -12.298	-3.677	-3.121
C -7.812	-6.045	-6.103
O -7.353	-5.934	-7.239
N -8.399	-5.048	-5.482
C -8.541	-3.73	-6.105
C -7.745	-2.689	-5.362
O -7.299	-2.938	-4.244
C -10.0	-3.318	-6.216
C -10.799	-4.128	-7.208
C -10.336	-3.95	-8.635
O -10.816	-3.074	-9.339
N -9.426	-4.768	-9.084
H -8.719	-5.183	-4.566
H -8.123	-3.806	-7.096
H -10.465	-3.435	-5.248
H -10.05	-2.279	-6.501
H -10.725	-5.173	-6.947
H -11.824	-3.796	-7.136
H -9.074	-5.466	-8.488
H -9.137	-4.645	-10.013
N -7.593	-1.524	-5.949
C -6.809	-0.472	-5.323
C -7.704	0.527	-4.598
O -8.747	0.954	-5.122
C -5.878	0.227	-6.328
S -6.7	1.047	-7.71
H -8.046	-1.364	-6.807
H -6.204	-0.956	-4.57
H -5.313	0.983	-5.803
H -5.192	-0.502	-6.733
H -7.99	1.164	-7.412
N -7.305	0.869	-3.392
C -8.051	1.755	-2.503
C -8.755	0.937	-1.413
C -9.789	-0.048	-1.927
C -9.407	-1.283	-2.432
C -11.139	0.25	-1.9
C -10.33	-2.185	-2.895
C -12.072	-0.652	-2.362
C -11.661	-1.87	-2.862
O -12.596	-2.781	-3.318
H -6.454	0.503	-3.055
H -8.786	2.29	-3.086
H -8.005	0.365	-0.885
H -9.233	1.602	-0.711
H -8.357	-1.531	-2.461
H -11.465	1.202	-1.509
H -9.993	-3.135	-3.284
H -7.747785234899329	-6.971228187919463	-5.584395973154362
H -7.356577181208054	2.4566040268456377	-2.04196644295302
