34

H -13.125	-0.406	-2.326
H -12.298	-3.677	-3.121
N -7.588	3.864	-1.377
H -8.557	4.012	-1.402
C -6.809	-0.472	-5.323
C -7.704	0.527	-4.598
O -8.747	0.954	-5.122
C -5.878	0.227	-6.328
S -6.7	1.047	-7.71
H -6.204	-0.956	-4.57
H -5.313	0.983	-5.803
H -5.192	-0.502	-6.733
H -7.99	1.164	-7.412
N -7.305	0.869	-3.392
C -8.051	1.755	-2.503
C -7.084	2.732	-1.861
O -5.874	2.453	-1.819
C -8.755	0.937	-1.413
C -9.789	-0.048	-1.927
C -9.407	-1.283	-2.432
C -11.139	0.25	-1.9
C -10.33	-2.185	-2.895
C -12.072	-0.652	-2.362
C -11.661	-1.87	-2.862
O -12.596	-2.781	-3.318
H -6.454	0.503	-3.055
H -8.786	2.29	-3.086
H -8.005	0.365	-0.885
H -9.233	1.602	-0.711
H -8.357	-1.531	-2.461
H -11.465	1.202	-1.509
H -9.993	-3.135	-3.284
H -7.379666666666667	-1.2377414965986395	-5.778659863945578
H -6.996122448979592	4.562734693877552	-0.9530408163265307
