76

C -6.735	4.871	-0.766
C -6.282	4.386	0.594
O -7.097	4.037	1.463
C -7.45	6.229	-0.591
C -6.515	7.32	-0.042
C -7.212	8.599	0.373
O -7.585	9.408	-0.494
O -7.351	8.842	1.584
H -5.87	5.004	-1.399
H -7.836	6.552	-1.546
H -8.27	6.107	0.1
H -6.001	6.928	0.822
H -5.786	7.556	-0.803
N -5.009	4.356	0.776
C -4.44	3.922	2.0
C -3.289	4.812	2.366
O -2.531	5.248	1.498
C -3.982	2.495	1.872
H -4.411	4.645	0.047
H -5.196	3.97	2.769
H -3.206	2.426	1.124
H -3.598	2.165	2.826
H -4.82	1.877	1.586
N -3.156	5.096	3.612
C -2.093	5.927	4.057
C -1.032	5.072	4.698
O -1.338	4.123	5.432
C -2.598	6.996	5.008
C -1.535	7.984	5.449
C -2.104	9.066	6.302
O -2.583	10.065	5.76
O -2.093	8.936	7.538
H -3.781	4.708	4.266
H -1.669	6.402	3.184
H -3.388	7.547	4.519
H -2.999	6.513	5.886
H -0.787	7.448	6.016
H -1.055	8.42	4.584
N 0.188	5.365	4.368
C 1.324	4.641	4.879
C 1.616	5.031	6.305
O 1.904	6.192	6.602
C 2.564	4.884	4.021
C 2.244	4.511	2.589
C 3.739	4.056	4.548
C 3.292	4.896	1.606
H 0.321	6.107	3.737
H 1.091	3.588	4.847
H 2.822	5.932	4.061
H 2.136	3.438	2.529
H 1.312	4.978	2.313
H 3.474	3.01	4.532
H 4.612	4.224	3.935
H 3.946	4.347	5.569
H 4.199	4.364	1.85
H 2.961	4.63	0.613
H 3.463	5.96	1.656
N 1.564	4.055	7.151
C 1.806	4.22	8.556
C 3.262	3.982	8.863
O 3.847	4.65	9.705
C 0.977	3.215	9.315
C -0.509	3.433	9.214
C -0.985	4.596	10.041
O -1.322	4.381	11.239
O -1.059	5.732	9.532
H 1.352	3.158	6.806
H 1.509	5.213	8.857
H 1.204	2.227	8.94
H 1.261	3.267	10.354
H -0.762	3.62	8.181
H -1.013	2.538	9.546
N 3.853	3.036	8.17
H 3.378	2.579	7.443
H -7.355891156462585	4.138013605442177	-1.2107414965986396
H 4.798755102040817	2.7820408163265307	8.33861224489796
