8

O 1.0803151354	-0.8320242966	-0.8628366428
C 1.5330403484	-1.8657356593	-0.103431603
O 1.6674402595	-2.9102653671	-0.627204342
C 1.8596184141	-1.5868436172	1.3375436681
H 2.6340361562	-0.823729473	1.4166597474
H 2.2117026955	-2.5137442385	1.7804082359
H 0.9723410689	-1.2378802866	1.8600800743
H 0.9385118499223022	0.05117642682086321	-0.5349982304640288
