43

C        -3.6795255143   -1.0631887458   -1.2987598094
C        -2.3942333476   -0.8483871619   -1.5792974559
C        -1.2498460063   -0.5934781822   -0.6555985840
C        -1.3717490569   -1.0271631841    0.8110978293
C        -1.9808173984   -0.0118684296    1.7224300271
C        -3.2949858449    0.1489188051    1.8341023124
C        -4.3408233083   -0.6680947700    1.1930857664
C        -4.4616519352   -1.1643843254   -0.0431342011
C         0.0533628876   -1.4200691607   -0.7680285663
C         0.1395115118   -1.4178450862    0.7969969032
C         1.0991477518   -0.9041666630   -1.7174450280
C         2.4137784105   -1.0698438222   -1.6985597637
C         3.2142832214   -1.8002870861   -0.6971895771
C         3.2774402650   -1.6286099657    0.6167461979
C         2.5873652387   -0.6577800488    1.5159207351
C         1.0784283273   -0.5265905547    1.5865915047
N         1.9118891226    0.5188009328    1.1133354244
C         2.0585372372    1.4726015295    0.1635737821
O         3.1014184125    1.8067656056   -0.3010753352
O         0.8949936992    2.0491235960   -0.1155988651
C         0.9336669423    3.1513889381   -1.0176224057
C        -0.4564905239    3.7412858065   -1.0857145007
H        -4.3113359805   -1.2375718102   -2.1639886381
H        -2.1360250243   -0.8575705128   -2.6350952119
H        -0.9833299926    0.4627962387   -0.6917283562
H        -1.9555354004   -1.9459470224    0.8607680757
H        -1.3317900787    0.6725546986    2.2555409682
H        -3.6658307462    0.9176297290    2.5042030424
H        -5.1816349930   -0.8755493968    1.8486602360
H        -5.3784214685   -1.7230532765   -0.2042085369
H        -0.1988162848   -2.4418637174   -1.0675704374
H         0.3035411205   -2.4165427611    1.2045698664
H         0.6887552461   -0.3646032703   -2.5669324431
H         2.9841800101   -0.6723243786   -2.5312729043
H         3.8716437656   -2.5560389007   -1.1170949413
H         3.9509249335   -2.2812942287    1.1612779697
H         3.1128581841   -0.5493701685    2.4595721657
H         0.6924058624   -0.3433660271    2.5853088388
H         1.2711645761    2.8007247810   -1.9923468569
H         1.6587448576    3.8784027457   -0.6571340288
H        -1.1783365315    3.0154966914   -1.4633059229
H        -0.4553855271    4.6038763266   -1.7552638171
H        -0.7853057474    4.0703544878   -0.0987932045
