64

H 5.593	-2.921	-10.009
H 4.001	-1.691	-8.637
H 4.846	-0.158	-8.951
H 4.176	-1.157	-11.45
H 2.349	0.122	-8.644
H 0.923	0.436	-9.608
H 2.416	-0.629	-12.649
H 1.075	0.238	-11.938
C 6.587	-9.175	-3.734
C 5.769	-8.359	-4.735
O 4.619	-8.712	-4.979
C 6.26	-8.732	-2.299
C 6.977	-9.536	-1.199
C 6.116	-10.644	-0.595
N 5.811	-11.704	-1.563
C 4.934	-12.693	-1.377
N 4.157	-12.744	-0.3
N 4.859	-13.637	-2.298
H 6.284	-10.212	-3.844
H 6.528	-7.683	-2.191
H 5.185	-8.813	-2.143
H 7.899	-9.981	-1.568
H 7.243	-8.844	-0.402
H 6.677	-11.087	0.225
H 5.192	-10.217	-0.205
H 6.392	-11.754	-2.395
H 4.176	-12.021	0.42
H 3.568	-13.547	-0.097
H 5.44	-13.559	-3.132
H 4.219	-14.424	-2.218
N 6.314	-7.277	-5.297
C 5.551	-6.296	-6.072
C 5.869	-6.276	-7.566
O 5.06	-5.761	-8.34
C 5.864	-4.895	-5.531
O 5.695	-4.819	-4.132
H 7.244	-7.011	-4.998
H 4.481	-6.481	-5.953
H 6.9	-4.641	-5.766
H 5.219	-4.167	-6.02
H 6.517	-5.192	-3.755
N 7.06	-6.724	-7.968
C 7.561	-6.529	-9.325
C 8.037	-5.088	-9.57
O 8.69	-4.803	-10.576
H 7.712	-7.104	-7.29
H 8.384	-7.214	-9.503
H 6.771	-6.766	-10.034
N 7.768	-4.165	-8.642
C 8.072	-2.738	-8.705
C 6.786	-1.92	-8.506
C 5.85	-1.902	-9.719
C 4.573	-1.124	-9.372
N 3.748	-0.895	-10.561
C 2.522	-0.368	-10.627
N 1.883	0.081	-9.544
N 1.944	-0.284	-11.813
H 7.447	-4.499	-7.747
H 8.514	-2.488	-9.67
H 6.249	-2.321	-7.646
H 7.065	-0.888	-8.288
H 6.361	-1.414	-10.551
H 7.63443537414966	-9.09565986394558	-3.9035986394557822
H 8.783657718120805	-2.5089194630872482	-7.905731543624161
