54

N -3.632	2.722	-8.343
C -4.201	1.393	-8.495
C -5.216	1.193	-7.375
O -6.372	0.886	-7.646
C -3.117	0.305	-8.465
C -2.034	0.492	-9.527
O -2.273	0.206	-10.719
O -0.899	0.885	-9.167
H -2.662	2.807	-8.071
H -4.72	1.338	-9.456
H -2.651	0.283	-7.481
H -3.598	-0.661	-8.624
N -4.812	1.424	-6.117
C -5.703	1.3	-4.969
C -6.894	2.227	-5.063
O -7.991	1.802	-4.753
C -4.978	1.552	-3.646
C -5.972	1.371	-2.47
C -5.411	0.441	-1.402
C -6.37	2.716	-1.846
H -3.852	1.713	-5.962
H -6.089	0.283	-4.938
H -4.17	0.831	-3.589
H -4.545	2.554	-3.632
H -6.874	0.882	-2.829
H -5.092	-0.493	-1.868
H -4.578	0.922	-0.901
H -6.191	0.211	-0.678
H -6.742	3.393	-2.613
H -7.175	2.56	-1.129
H -5.516	3.176	-1.352
N -6.702	3.485	-5.417
C -7.778	4.455	-5.539
C -7.254	5.787	-6.096
C -8.392	6.73	-6.438
C -9.117	7.368	-5.414
C -8.828	6.829	-7.774
C -10.308	8.053	-5.711
C -10.012	7.518	-8.083
C -10.771	8.101	-7.044
O -11.957	8.692	-7.338
H -5.746	3.74	-5.611
H -8.218	4.602	-4.553
H -6.589	6.236	-5.369
H -6.67	5.599	-6.996
H -8.795	7.301	-4.386
H -8.287	6.326	-8.564
H -10.87	8.516	-4.912
H -10.364	7.553	-9.105
H -12.646	8.419	-6.706
C -4.354	3.844	-8.435
O -5.56	3.859	-8.676
H -3.8256241610738257	4.749986577181208	-8.261201342281879
H -8.562187919463087	4.047107382550336	-6.178845637583892
