50

H -14.932	-3.303	-8.462
H -13.808	-3.454	-9.807
H -12.376	-4.574	-7.818
H -15.664	-5.273	-9.076
H -15.717	-6.817	-8.287
H -12.605	-6.699	-6.731
H -14.057	-7.583	-7.093
N -15.399	-0.545	-5.78
C -15.995	-1.371	-4.743
C -15.164	-2.63	-4.505
O -15.72	-3.637	-4.079
H -14.734	0.155	-5.476
H -16.052	-0.802	-3.815
H -17.003	-1.66	-5.032
N -13.861	-2.621	-4.817
C -13.018	-3.809	-4.841
C -12.064	-3.881	-3.66
O -11.671	-4.982	-3.292
H -13.407	-1.782	-5.162
H -13.633	-4.711	-4.858
H -12.415	-3.792	-5.746
N -11.725	-2.752	-3.027
H -12.024	-1.872	-3.423
C -13.677	3.17	-6.002
C -14.473	2.255	-6.941
O -15.613	2.578	-7.279
C -13.159	4.427	-6.702
H -14.355	3.468	-5.21
H -12.314	4.183	-7.342
H -13.946	4.854	-7.307
H -12.835	5.157	-5.958
N -13.92	1.11	-7.353
C -14.659	0.052	-8.05
C -15.549	-0.745	-7.087
O -16.344	-1.567	-7.527
C -13.684	-0.832	-8.862
C -13.145	-2.128	-8.23
C -13.882	-3.386	-8.723
N -13.338	-4.618	-8.123
C -14.005	-5.768	-7.96
N -15.205	-5.959	-8.486
N -13.482	-6.755	-7.252
H -12.929	0.993	-7.176
H -15.324	0.532	-8.767
H -14.187	-1.097	-9.783
H -12.831	-0.225	-9.153
H -12.089	-2.228	-8.472
H -13.225	-2.06	-7.155
H -12.856666666666667	2.6975986394557823	-5.541972789115646
H -11.176836734693877	-2.777673469387755	-2.1728367346938775
