60

C -10.904	-7.506	0.396
C -10.495	-7.004	1.783
O -9.596	-7.569	2.394
C -9.835	-7.149	-0.649
C -10.117	-7.651	-2.074
C -8.941	-7.263	-2.98
C -10.358	-9.16	-2.146
H -10.962	-8.59	0.447
H -9.706	-6.066	-0.669
H -8.898	-7.6	-0.324
H -11.015	-7.17	-2.45
H -8.802	-6.182	-2.961
H -8.024	-7.747	-2.642
H -9.147	-7.563	-4.008
H -9.564	-9.695	-1.631
H -11.31	-9.405	-1.672
H -10.4	-9.477	-3.189
N -11.168	-5.981	2.32
C -10.9	-5.385	3.631
C -11.457	-6.299	4.754
O -11.664	-5.868	5.891
C -11.517	-3.971	3.639
C -10.726	-2.885	4.392
C -11.552	-1.597	4.372
C -10.311	-3.172	5.834
H -11.897	-5.553	1.763
H -9.82	-5.304	3.75
H -11.628	-3.624	2.612
H -12.518	-4.035	4.057
H -9.812	-2.703	3.831
H -11.763	-1.295	3.349
H -12.496	-1.757	4.893
H -11.003	-0.808	4.876
H -9.707	-4.072	5.876
H -9.723	-2.344	6.229
H -11.195	-3.307	6.451
N -11.721	-7.57	4.444
C -12.053	-8.637	5.363
C -10.969	-9.657	5.159
O -11.006	-10.358	4.13
C -13.487	-9.137	5.097
C -13.971	-10.228	6.067
C -13.645	-11.673	5.641
C -12.939	-12.493	6.729
N -11.554	-12.05	6.979
O -10.109	-9.791	6.052
H -11.453	-7.89	3.523
H -11.98	-8.281	6.382
H -14.154	-8.283	5.219
H -13.585	-9.483	4.067
H -13.579	-10.021	7.064
H -15.056	-10.147	6.135
H -14.588	-12.172	5.412
H -13.054	-11.692	4.726
H -13.513	-12.419	7.655
H -12.918	-13.54	6.419
H -10.988	-12.088	6.135
H -11.518	-11.088	7.311
H -11.104	-12.636	7.674
H -11.853897959183673	-7.115122448979593	0.12376870748299318
