55

H -1.775	15.326	-2.696
H -1.11	13.699	-5.789
H -0.91	15.186	-6.655
H -1.704	17.209	-3.861
H -1.35	17.263	-5.566
C 2.1	9.082	-2.161
O 0.97	8.593	-2.143
N 3.04	8.715	-1.285
C 2.818	7.814	-0.168
C 1.918	8.459	0.878
O 0.959	7.819	1.3
C 4.185	7.441	0.402
O 4.177	6.421	1.376
H 3.927	9.19	-1.345
H 2.319	6.912	-0.523
H 4.776	7.067	-0.433
H 4.664	8.323	0.825
H 4.041	6.813	2.256
N 2.199	9.688	1.332
C 1.402	10.261	2.416
C 0.004	10.663	1.927
O -0.954	10.558	2.693
C 2.17	11.372	3.136
C 3.15	10.822	4.15
N 2.816	10.379	5.421
C 4.504	10.677	3.997
C 3.955	9.986	6.025
N 4.99	10.168	5.186
H 2.843	10.298	0.822
H 1.245	9.482	3.16
H 2.678	12.016	2.415
H 1.452	11.987	3.676
H 1.889	10.399	5.861
H 5.11	10.928	3.14
H 4.053	9.639	7.045
H 5.972	10.05	5.466
N -0.159	11.0	0.647
C -1.456	11.177	-0.002
C -1.235	11.539	-1.484
C -1.519	13.015	-1.769
C -1.324	13.333	-3.253
N -1.524	14.768	-3.504
C -1.331	15.397	-4.666
N -1.04	14.715	-5.766
N -1.438	16.718	-4.713
H 0.671	11.13	0.078
H -1.997	11.99	0.495
H -0.211	11.314	-1.778
H -1.88	10.936	-2.115
H -2.555	13.234	-1.51
H -0.854	13.636	-1.168
H -0.316	13.048	-3.551
H -2.035	12.757	-3.844
H 2.361744966442953	9.85606711409396	-2.855496644295302
H -2.0793288590604027	10.281503355704697	0.10787248322147652
