12

C 4.0295078919	-1.3162781916	-0.2891445129
C 4.5292210873	0.0906897752	-0.5793233319
C 3.7785113184	1.0972163098	0.2850223435
H 6.1436467258	0.0093188842	0.4804500178
O 5.9187022944	0.2079823273	-0.4170309945
H 4.2670681211	-1.574758813	0.7495034401
H 4.5673556338	-2.0296707487	-0.9174588417
H 4.3481687975	0.3198104912	-1.631636277
H 4.0782529328	0.9251718526	1.3274718099
H 4.0967567162	2.109419265	0.0347417977
H 2.9719356770046055	-1.3955739259677633	-0.4707128084651315
H 2.697737993597986	1.015084815695973	0.2023681948261745
