24

C -2.0516239735	0.7697347566	-0.5045902877
C -2.0416518181	-1.6999031116	-0.5486517851
C -2.7711793863	-0.4829055816	0.0277075029
C -3.0056919786	1.9266218311	-0.1930299806
C -4.190907482	-0.2344775464	-0.5359169913
C -2.7884378686	-0.5287057119	1.5677638835
C -4.4129596586	1.2866535979	-0.3248106034
C -5.3226142212	-1.1067051877	-0.0002417845
H -2.0615117049	0.6509472353	-1.5974601671
H -2.1169236779	-1.6734952252	-1.6405821518
H -2.509343637	-2.6348331445	-0.2264619152
H -2.8671150137	2.7677026976	-0.87332339
H -2.8434843103	2.3056750752	0.8174798847
H -4.1282125266	-0.4136463569	-1.6143750652
H -1.7950279183	-0.3844673453	1.9912805473
H -3.4289918706	0.2450733058	1.9922471288
H -3.1636552874	-1.491517941	1.922399156
H -4.9776547356	1.7141230346	-1.1554969551
H -5.0063600697	1.46918185	0.5739175174
H -5.4841586749	-0.9596720363	1.0695629777
H -5.1247983921	-2.1683215209	-0.1684580332
H -6.2600987835	-0.8648475439	-0.5078864053
H -1.0017547014395973	0.8302993516731544	-0.25353995769060406
H -1.0028071745835525	-1.7126339752605264	-0.2518619054743421
