62

C 2.543	14.606	-2.998
H -3.51	18.064	-5.573
H -0.822	17.977	-4.871
H -2.344	16.228	-4.355
H -2.662	15.884	-6.022
H -1.241	14.102	-7.165
H 0.89	13.004	-6.523
H -0.116	16.688	-3.045
H 2.929	13.102	-4.472
H 1.881	16.171	-1.697
H 3.429	14.386	-2.42
N -1.344	17.288	-8.002
H -2.299	17.082	-7.897
C -5.41	16.086	-7.243
O -4.238	15.991	-7.546
N -6.221	16.963	-7.76
C -5.746	17.925	-8.782
C -4.648	18.806	-8.179
O -3.571	18.906	-8.727
C -6.923	18.761	-9.208
C -7.934	17.902	-10.01
C -9.247	18.684	-10.215
O -9.186	19.694	-10.896
O -10.243	18.226	-9.678
H -7.157	17.001	-7.479
H -5.354	17.381	-9.623
H -7.369	19.123	-8.297
H -6.571	19.594	-9.792
H -7.52	17.677	-10.983
H -8.135	16.969	-9.511
N -4.968	19.408	-7.056
C -4.007	20.309	-6.345
C -2.626	19.674	-6.273
O -1.63	20.281	-6.596
C -4.51	20.554	-4.96
C -5.871	21.277	-4.999
S -5.889	23.024	-5.48
C -6.452	22.834	-7.191
H -5.852	19.257	-6.656
H -3.927	21.233	-6.901
H -4.582	19.598	-4.466
H -3.761	21.154	-4.469
H -6.51	20.764	-5.698
H -6.342	21.168	-4.037
H -5.835	22.115	-7.706
H -7.489	22.532	-7.209
H -6.352	23.784	-7.695
N -2.652	18.453	-5.822
C -1.447	17.608	-5.666
C -0.649	17.618	-6.944
O 0.525	17.92	-6.94
C -1.914	16.219	-5.331
C -0.747	15.246	-5.367
C -0.592	14.316	-6.333
C 0.271	15.174	-4.495
N 0.528	13.729	-5.985
C 1.13	14.167	-4.895
C 0.547	15.898	-3.345
C 2.264	13.885	-4.149
C 1.68	15.616	-2.594
H -5.863691275167785	15.4508322147651	-6.519885906040268
H -0.8728571428571429	17.262326530612246	-8.922775510204083
