51

H 8.265	16.752	-3.867
H 9.702	14.651	-3.311
H 10.29	17.362	-3.519
H 10.903	17.029	-1.917
H 12.706	16.674	-3.464
H 12.226	15.105	-2.848
H 9.779	15.987	-5.02
H 10.414	15.252	-6.41
N 9.194	15.801	-0.225
C 9.011	15.353	1.194
C 8.47	16.602	1.914
C 7.905	17.464	0.759
C 8.97	17.271	-0.325
H 9.986	15.113	1.596
H 7.688	16.349	2.617
H 9.264	17.121	2.422
H 6.945	17.092	0.438
H 7.824	18.501	1.045
H 8.603	17.556	-1.298
H 9.884	17.8	-0.093
C 5.9	16.588	-3.184
C 7.07	15.85	-2.579
O 6.877	15.077	-1.675
C 5.665	15.971	-4.566
C 4.541	16.654	-5.306
C 4.225	15.83	-6.567
C 3.183	16.585	-7.393
N 3.824	17.594	-8.284
H 5.037	16.503	-2.541
H 6.569	16.044	-5.156
H 5.42	14.925	-4.439
H 3.666	16.682	-4.673
H 4.83	17.662	-5.561
H 5.126	15.678	-7.141
H 3.831	14.862	-6.289
H 2.598	15.906	-7.995
H 2.535	17.104	-6.711
H 4.857	17.515	-8.208
H 3.548	17.407	-9.269
H 3.519	18.55	-8.012
N 8.234	16.116	-3.123
C 9.521	15.502	-2.672
C 9.482	14.975	-1.214
O 9.714	13.802	-1.031
C 10.638	16.578	-2.861
C 11.913	15.941	-3.456
C 11.694	15.445	-4.905
O 12.602	14.927	-5.523
N 10.532	15.573	-5.492
H 6.253755102040817	17.612142857142857	-3.2131156462585038
H 8.358228187919464	14.468993288590603	1.3196711409395974
