57

C 7.243	0.571	-1.708
C 8.389	-0.456	-1.531
O 8.23	-1.656	-1.645
C 7.493	1.368	-3.012
C 7.435	0.423	-4.248
C 8.177	1.09	-5.43
C 8.05	0.231	-6.707
N 8.568	-1.153	-6.487
H 6.304	0.035	-1.729
H 6.746	2.139	-3.119
H 8.464	1.843	-2.962
H 7.9	-0.525	-4.02
H 6.407	0.238	-4.523
H 7.77	2.074	-5.613
H 9.224	1.197	-5.179
H 7.018	0.173	-7.017
H 8.626	0.683	-7.504
H 8.916	-1.254	-5.512
H 7.802	-1.84	-6.65
H 9.345	-1.347	-7.151
N 9.53	0.117	-1.25
C 10.791	-0.636	-1.027
C 10.571	-1.676	0.09
O 10.779	-2.857	-0.123
C 11.875	0.455	-0.684
C 13.345	-0.029	-0.771
C 13.729	-0.958	0.396
O 13.476	-2.142	0.266
O 14.255	-0.424	1.361
H 9.557	1.089	-1.179
H 11.022	-1.161	-1.943
H 11.761	1.306	-1.345
H 11.721	0.823	0.319
H 13.503	-0.55	-1.704
H 13.994	0.837	-0.762
N 10.139	-1.225	1.246
C 9.907	-2.185	2.381
C 9.223	-1.442	3.556
C 9.308	-2.339	4.825
C 8.644	-1.687	6.07
C 7.112	-1.549	5.91
N 6.762	-0.423	4.995
H 9.954	-0.266	1.372
H 10.865	-2.572	2.701
H 9.714	-0.496	3.73
H 8.189	-1.256	3.298
H 8.847	-3.297	4.635
H 10.348	-2.51	5.057
H 8.856	-2.296	6.938
H 9.074	-0.71	6.235
H 6.699	-2.463	5.507
H 6.656	-1.362	6.873
H 7.629	0.041	4.661
H 6.227	-0.785	4.18
H 6.179	0.271	5.507
H 7.246639455782313	1.2523061224489795	-0.843265306122449
H 9.27361744966443	-3.0309463087248325	2.060718120805369
