48

C 1.254	-5.773	0.593
O 1.96	-6.043	-0.357
N 0.12	-5.146	0.491
C -0.38	-4.701	-0.841
C 0.482	-3.537	-1.335
O 1.554	-3.295	-0.809
C -1.859	-4.259	-0.717
C -2.762	-5.495	-0.521
C -4.241	-5.192	-0.91
C -4.413	-4.963	-2.447
N -4.038	-3.574	-2.85
H -0.402	-4.974	1.294
H -0.294	-5.516	-1.545
H -1.961	-3.61	0.142
H -2.136	-3.706	-1.595
H -2.395	-6.33	-1.102
H -2.74	-5.781	0.521
H -4.866	-6.019	-0.609
H -4.575	-4.308	-0.386
H -3.784	-5.653	-2.991
H -5.438	-5.137	-2.735
H -3.723	-3.035	-2.017
H -3.272	-3.61	-3.553
H -4.866	-3.104	-3.267
N -0.002	-2.844	-2.33
C 0.779	-1.705	-2.866
C 0.435	-1.584	-4.383
C -1.064	-1.258	-4.639
C -1.412	-1.592	-6.101
N -2.793	-1.096	-6.374
C -3.012	-0.254	-7.348
N -2.309	0.844	-7.421
N -3.937	-0.542	-8.222
H -0.872	-3.074	-2.72
H 1.816	-1.97	-2.755
H 1.038	-0.802	-4.821
H 0.685	-2.513	-4.874
H -1.703	-1.819	-3.973
H -1.238	-0.204	-4.48
H -0.712	-1.135	-6.787
H -1.403	-2.662	-6.245
H -3.542	-1.4	-5.821
H -1.608	1.034	-6.733
H -2.469	1.496	-8.162
H -4.456	-1.392	-8.134
H -4.128	0.081	-8.979
H 1.5422684563758389	-6.053590604026845	1.5771610738255033
H 0.5384295302013422	-0.781496644295302	-2.2922214765100675
