57

C -0.783	12.085	-2.666
C -1.443	11.714	-1.344
O -2.07	12.532	-0.71
C -1.662	11.723	-3.854
C -3.096	12.228	-3.681
C -3.355	13.571	-3.754
C -4.14	11.35	-3.458
C -4.632	14.044	-3.61
C -5.427	11.825	-3.313
C -5.673	13.169	-3.39
H -0.516	13.13	-2.711
H -1.248	12.178	-4.741
H -1.692	10.647	-3.947
H -2.544	14.263	-3.926
H -3.948	10.289	-3.397
H -4.824	15.105	-3.671
H -6.241	11.137	-3.14
H -6.68	13.544	-3.277
N -1.27	10.473	-0.977
C -1.858	9.966	0.288
C -1.412	10.805	1.505
O -2.241	11.324	2.223
C -1.426	8.504	0.479
C -2.364	7.852	1.504
C -3.617	7.42	1.104
C -1.99	7.697	2.826
C -4.482	6.846	2.008
C -2.857	7.122	3.733
C -4.103	6.696	3.324
H -0.747	9.869	-1.544
H -2.934	10.016	0.222
H -1.508	7.98	-0.46
H -0.415	8.474	0.857
H -3.918	7.535	0.073
H -1.015	8.03	3.151
H -5.457	6.514	1.685
H -2.558	7.006	4.765
H -4.78	6.244	4.035
N -0.121	10.926	1.691
C 0.439	11.702	2.836
C 1.98	11.906	2.689
C 2.893	10.633	2.615
C 2.532	9.546	3.642
C 2.994	10.049	1.194
H 0.496	10.51	1.062
H 0.215	11.16	3.737
H 2.16	12.488	1.797
H 2.309	12.494	3.533
H 3.883	10.976	2.873
H 2.624	9.937	4.645
H 1.523	9.182	3.492
H 3.217	8.717	3.533
H 3.394	10.806	0.538
H 3.669	9.205	1.185
H 2.037	9.724	0.822
H 0.10502721088435374	11.484489795918368	-2.7446122448979593
H -0.006234899328859123	12.695879194630873	2.9501812080536913
