83

C -9.152	21.122	6.741
C -10.131	21.6	5.659
O -10.764	22.626	5.821
C -7.678	21.268	6.299
C -7.076	22.673	6.498
C -7.776	23.758	5.645
C -6.71	24.656	4.978
N -5.77	25.225	5.99
H -9.324	21.689	7.645
H -7.075	20.559	6.847
H -7.601	21.017	5.25
H -7.156	22.931	7.542
H -6.024	22.622	6.255
H -8.383	23.311	4.873
H -8.41	24.362	6.278
H -6.137	24.083	4.263
H -7.191	25.474	4.46
H -6.043	24.906	6.942
H -4.805	24.9	5.781
H -5.8	26.263	5.95
N -10.258	20.844	4.596
C -11.188	21.262	3.501
C -12.56	20.712	3.821
O -13.572	21.263	3.455
C -10.668	20.729	2.125
C -9.902	19.378	2.22
C -9.729	21.813	1.568
C -9.693	18.802	0.802
H -9.768	20.001	4.529
H -11.242	22.334	3.493
H -11.515	20.615	1.464
H -8.92	19.551	2.643
H -10.42	18.662	2.837
H -10.276	22.737	1.452
H -8.912	21.975	2.256
H -9.335	21.52	0.61
H -10.646	18.656	0.314
H -9.1	19.471	0.196
H -9.185	17.852	0.867
N -12.516	19.621	4.519
C -13.715	18.887	4.98
C -14.353	19.792	6.048
O -15.559	19.913	6.131
C -13.231	17.595	5.576
C -14.395	16.692	6.049
C -13.872	15.614	7.04
C -12.707	14.791	6.448
N -13.12	14.115	5.185
H -11.649	19.248	4.751
H -14.39	18.738	4.152
H -12.63	17.111	4.819
H -12.574	17.852	6.396
H -15.146	17.284	6.552
H -14.854	16.214	5.197
H -13.538	16.097	7.947
H -14.685	14.95	7.3
H -11.867	15.433	6.239
H -12.397	14.036	7.153
H -14.109	14.354	4.968
H -12.508	14.438	4.407
H -13.026	13.086	5.297
N -13.487	20.396	6.828
C -13.925	21.311	7.925
C -14.716	22.481	7.342
O -15.771	22.839	7.83
H -12.526	20.249	6.68
H -14.545	20.763	8.62
H -13.054	21.69	8.438
N -14.154	23.035	6.301
C -14.77	24.19	5.592
C -13.731	24.776	4.625
C -12.431	25.16	5.363
C -12.58	26.503	6.099
O -13.302	26.524	7.084
O -11.959	27.443	5.629
H -13.294	22.692	5.975
H -15.048	24.923	6.329
H -13.495	24.044	3.865
H -14.141	25.648	4.135
H -12.208	24.407	6.098
H -11.606	25.191	4.67
H -9.29539455782313	20.067285714285713	6.950632653061224
H -15.672677852348993	23.907778523489934	5.024684563758389
