89

C -16.027	23.797	4.802
O -17.069	24.413	4.931
N -15.873	22.773	4.006
C -16.958	22.236	3.144
C -17.151	20.74	3.445
O -16.668	19.887	2.723
C -16.542	22.468	1.676
C -15.878	23.847	1.554
N -16.469	24.983	1.719
C -14.563	24.178	1.275
C -15.617	25.942	1.556
N -14.419	25.489	1.278
H -15.02	22.32	3.957
H -17.882	22.743	3.362
H -15.844	21.717	1.338
H -17.418	22.451	1.043
H -17.419	25.1	1.935
H -13.768	23.466	1.086
H -15.861	26.99	1.641
N -17.852	20.451	4.517
C -18.339	19.077	4.817
C -19.598	18.787	3.976
O -20.54	18.186	4.457
C -18.583	19.127	6.321
C -19.141	20.57	6.498
C -18.24	21.426	5.575
H -17.57	18.364	4.568
H -19.311	18.391	6.634
H -17.669	18.992	6.876
H -20.175	20.626	6.187
H -19.057	20.893	7.527
H -18.77	22.25	5.129
H -17.354	21.79	6.065
N -19.564	19.229	2.741
C -20.706	19.021	1.817
C -20.275	18.687	0.387
O -21.045	18.923	-0.523
H -18.778	19.699	2.407
H -21.297	18.204	2.183
H -21.313	19.917	1.804
N -19.085	18.158	0.206
C -18.641	17.816	-1.182
C -18.845	16.296	-1.373
O -19.76	15.91	-2.071
C -17.151	18.165	-1.379
C -16.68	19.479	-0.747
C -15.173	19.634	-1.069
C -17.457	20.66	-1.358
H -18.485	17.997	0.959
H -19.244	18.351	-1.893
H -16.487	17.361	-1.097
H -17.07	18.331	-2.434
H -16.81	19.431	0.321
H -14.623	18.797	-0.669
H -15.014	19.657	-2.138
H -14.775	20.539	-0.634
H -17.305	20.688	-2.428
H -18.514	20.555	-1.159
H -17.114	21.592	-0.934
N -17.984	15.525	-0.741
C -17.946	14.009	-0.737
C -16.508	13.509	-0.842
O -15.603	14.269	-1.111
C -18.71	13.367	-1.937
O -20.082	13.434	-1.57
H -17.285	15.989	-0.237
H -18.355	13.65	0.194
H -18.552	13.913	-2.853
H -18.433	12.333	-2.077
H -20.415	12.534	-1.527
N -16.336	12.228	-0.638
C -14.981	11.597	-0.713
C -15.108	10.189	-0.111
C -13.731	9.474	0.019
C -16.054	9.304	-0.972
C -12.726	10.301	0.86
H -17.11	11.67	-0.431
H -14.299	12.208	-0.146
H -15.573	10.315	0.85
H -13.894	8.522	0.494
H -13.305	9.284	-0.956
H -17.039	9.745	-1.021
H -15.668	9.203	-1.975
H -16.145	8.319	-0.537
H -13.121	10.486	1.848
H -11.8	9.751	0.95
H -12.509	11.249	0.387
H -15.149630872483222	24.071308724832218	5.353409395973154
H -14.61906711409396	11.562530201342282	-1.7521208053691275
