16

C -0.7962252615	0.7331413893	-0.6186660218
C -1.6408932745	1.069009538	0.6260946605
C -3.1206984395	1.1930924112	0.3245994835
C -3.9463959353	-0.0219526948	0.1417075027
C -3.5617345592	-1.2796272255	0.3190917631
C -3.6966428828	2.3880238589	0.2151884467
H -1.0841258212	-0.2393538081	-1.0103780163
H -1.0221473683	1.4632655946	-1.3983479308
H -1.2936703882	2.0176817469	1.0384434241
H -1.4669251317	0.3102437994	1.3879253705
H -4.7499997165	2.4910487073	-0.0154019893
H -3.1376564899	3.3045838776	0.3578184142
H -4.9737394894	0.1688223853	-0.1509356615
H -4.2660584647	-2.0887945344	0.17007609
H -2.558833811	-1.556256258	0.6145105244
H 0.2754279107617451	0.7709088419986577	-0.4218478506369127
