10

C 1.9555418599	-3.1114498043	0.1990439244
C 0.6317380192	-2.9337243217	0.2710068599
C -0.0984556874	-1.6619803217	0.2182575087
C -1.4221776279	-1.6535310017	0.0686142275
H 2.3328330949	-4.1196922336	0.3274287108
H 0.0209822914	-3.8188737451	0.4104183428
H 0.4626224226	-0.752142746	0.3483853721
H -1.9497543412	-2.5841153977	-0.0609659221
H 2.673171041658904	-2.379837938009589	0.004364714893150656
H -2.067285639716667	-0.8676413093055554	0.06653157846111112
