10

C 2.9629828266	-2.0843792997	-0.0742557351
C 4.2772676161	-2.2931290219	0.0561685566
C 5.3895167293	-1.3800242938	-0.2589058469
C 5.4357959314	-0.0424257246	-0.274983931
H 2.6067476099	-1.1378117697	-0.453977334
H 4.5946577046	-3.2777642487	0.3872663842
H 6.3099170193	-1.8931231217	-0.51684051
H 6.3666080005	0.4183874063	-0.5873633119
H 2.245353644841096	-2.815991165990411	0.12042347440684933
H 4.664160591350686	0.6082530949397261	-0.023263431263013667
