10

H 0.8065625047	4.3305858572	0.6191181835
H -1.3623275234	3.3816286109	0.6700971029
H -0.2234567615	0.9000369279	-0.7995934729
H -2.6495442624	1.2879685091	0.9993421069
C 0.68303284	3.3066769212	0.2857559334
C -0.5433210689	2.7749992244	0.3002845142
C -0.8831172978	1.4049770277	-0.1116607394
C -1.9582590387	0.7784044738	0.3460067051
H -2.2161971427166667	-0.19210367722222232	0.1435850444611111
H 1.5462367402136987	2.7868732595232877	0.027050727273972563
