49

C 6.701	2.887	-0.999
C 7.39	1.809	-0.16
O 6.771	0.862	0.282
C 6.05	3.934	-0.097
O 7.032	4.495	0.762
C 4.954	3.273	0.74
H 7.41	3.357	-1.663
H 5.613	4.712	-0.704
H 7.061	5.441	0.6
H 4.213	2.836	0.085
H 5.389	2.5	1.356
H 4.486	4.014	1.37
N 8.669	1.946	0.057
C 9.402	0.932	0.864
C 9.832	1.536	2.207
O 10.828	1.146	2.783
C 10.628	0.575	0.021
O 11.302	1.766	-0.362
H 9.148	2.717	-0.311
H 8.791	0.055	1.016
H 11.296	-0.047	0.599
H 10.313	0.041	-0.863
H 12.054	1.882	0.222
N 9.091	2.49	2.704
C 9.464	3.122	4.004
C 9.116	2.195	5.168
O 9.553	2.388	6.285
C 8.632	4.4	4.074
C 9.49	5.592	3.646
C 9.983	5.379	2.213
O 10.864	4.556	2.026
O 9.471	6.045	1.327
H 8.294	2.794	2.223
H 10.51	3.361	4.017
H 7.782	4.313	3.413
H 8.287	4.551	5.087
H 8.9	6.496	3.694
H 10.338	5.681	4.309
N 8.335	1.192	4.909
C 7.952	0.243	5.99
C 8.561	-1.128	5.7
O 8.147	-2.131	6.245
H 8.002	1.061	3.999
H 8.317	0.609	6.938
H 6.875	0.157	6.028
N 9.538	-1.18	4.836
H 9.852	-0.361	4.402
H 5.882122448979591	2.460455782312925	-1.5645714285714285
H 9.974448979591836	-2.088285714285714	4.604938775510204
