29

C -8.444	4.19	0.918
C -8.136	5.033	2.164
O -7.69	6.159	2.066
C -9.815	4.55	0.336
C -10.044	6.06	0.43
C -10.909	6.52	-0.744
O -10.97	5.863	-1.763
N -11.586	7.632	-0.644
H -7.679	4.33	0.168
H -9.856	4.245	-0.698
H -10.586	4.035	0.891
H -10.547	6.289	1.358
H -9.094	6.571	0.401
H -11.536	8.163	0.178
H -12.142	7.936	-1.391
N -8.381	4.502	3.332
C -8.116	5.271	4.572
C -9.485	5.44	5.237
C -10.384	4.232	4.948
O -10.445	3.304	5.729
N -11.089	4.206	3.848
H -8.748	3.604	3.398
H -7.697	6.238	4.336
H -9.345	5.521	6.295
H -9.957	6.337	4.866
H -11.041	4.955	3.219
H -11.665	3.438	3.655
H -8.526251700680273	3.1432925170068025	1.1873197278911565
H -7.440248322147651	4.71086577181208	5.232671140939598
