49

C -7.175	4.491	5.492
O -7.556	4.05	6.558
N -5.95	4.319	5.088
C -4.977	3.573	5.94
C -5.012	4.111	7.376
O -4.931	3.366	8.332
C -3.618	3.848	5.29
C -2.58	2.871	5.796
C -2.352	2.731	7.172
C -1.849	2.095	4.884
C -1.397	1.821	7.636
C -0.895	1.183	5.35
C -0.669	1.044	6.726
O 0.271	0.145	7.185
H -5.668	4.682	4.223
H -5.19	2.516	5.923
H -3.712	3.738	4.221
H -3.306	4.855	5.522
H -2.905	3.328	7.876
H -2.015	2.207	3.819
H -1.222	1.717	8.696
H -0.336	0.583	4.647
H -0.024	-0.182	8.038
N -5.125	5.398	7.538
C -5.156	5.973	8.913
C -6.357	5.435	9.695
O -6.28	5.198	10.884
C -5.285	7.483	8.709
C -4.232	8.205	9.55
O -4.021	7.794	10.68
O -3.655	9.157	9.052
H -5.186	5.987	6.758
H -4.237	5.749	9.433
H -5.137	7.718	7.665
H -6.27	7.804	9.013
N -7.47	5.253	9.039
C -8.679	4.744	9.751
C -8.852	3.234	9.536
O -9.82	2.647	9.976
C -9.85	5.505	9.13
H -7.514	5.462	8.083
H -8.615	4.968	10.804
H -9.49	6.115	8.314
H -10.58	4.801	8.758
H -10.306	6.137	9.878
N -7.929	2.601	8.865
H -7.156	3.089	8.516
H -7.831805369127516	5.035429530201342	4.849852348993289
H -8.018510204081633	1.581	8.701938775510206
