53

C -3.23	-2.166	4.638
O -3.545	-1.416	3.736
C -5.572	-2.687	5.386
C -6.478	-2.866	6.605
C -6.177	-4.209	7.274
C -7.411	-5.109	7.191
N -7.842	-5.302	8.605
H -4.308	-0.261	6.164
H -3.773	-3.186	6.462
H -5.937	-1.868	4.784
H -5.576	-3.594	4.8
H -6.3	-2.066	7.308
H -7.51	-2.845	6.291
H -5.35	-4.686	6.769
H -5.919	-4.046	8.311
H -8.193	-4.623	6.625
H -7.156	-6.057	6.743
H -7.005	-5.332	9.221
H -8.456	-4.513	8.891
H -8.363	-6.197	8.69
N -2.099	-2.811	4.616
H -1.862	-3.409	5.352
C -8.058	1.131	8.63
C -6.751	0.414	8.98
O -6.732	-0.509	9.77
C -8.36	0.999	7.136
C -9.852	0.722	6.942
O -10.645	1.377	7.598
O -10.176	-0.139	6.141
H -8.876	0.728	9.206
H -8.096	1.917	6.633
H -7.785	0.183	6.724
N -5.662	0.831	8.387
C -4.339	0.189	8.663
C -4.24	-1.153	7.935
O -4.156	-2.201	8.543
C -4.272	-0.008	10.179
C -2.928	0.51	10.694
C -2.998	0.694	12.211
O -2.554	-0.154	12.96
N -3.539	1.776	12.7
H -5.715	1.569	7.751
H -3.54	0.84	8.345
H -5.073	0.542	10.65
H -4.368	-1.057	10.412
H -2.152	-0.202	10.453
H -2.706	1.457	10.225
H -3.896	2.46	12.096
H -3.588	1.905	13.67
N -4.244	-1.12	6.63
C -4.144	-2.384	5.845
H -7.964102040816327	2.201	8.801054421768708
H -1.4516122448979591	-2.688877551020408	3.818734693877551
