64

C -1.921	-5.378	-7.643
O -2.633	-4.78	-6.862
N -1.921	-6.681	-7.697
C -2.808	-7.463	-6.789
C -2.047	-7.884	-5.529
O -0.931	-8.359	-5.593
C -3.217	-8.694	-7.596
C -1.963	-9.43	-8.074
C -1.954	-9.483	-9.603
O -1.254	-8.724	-10.244
N -2.707	-10.352	-10.219
H -1.343	-7.146	-8.337
H -3.681	-6.888	-6.529
H -3.806	-9.351	-6.974
H -3.801	-8.386	-8.451
H -1.084	-8.906	-7.726
H -1.963	-10.435	-7.679
H -3.271	-10.965	-9.702
H -2.71	-10.392	-11.198
N -2.649	-7.717	-4.384
C -1.968	-8.113	-3.117
C -2.761	-9.223	-2.426
O -3.974	-9.181	-2.356
C -1.95	-6.85	-2.254
O -3.234	-6.658	-1.675
C -1.59	-5.637	-3.113
H -3.55	-7.337	-4.357
H -0.959	-8.438	-3.318
H -1.216	-6.961	-1.471
H -3.845	-6.43	-2.379
H -1.198	-5.971	-4.063
H -2.473	-5.039	-3.28
H -0.844	-5.044	-2.604
N -2.089	-10.217	-1.917
C -2.809	-11.33	-1.235
C -1.87	-12.046	-0.261
O -1.291	-13.065	-0.578
C -3.238	-12.271	-2.361
C -4.145	-13.365	-1.796
C -3.726	-14.72	-2.369
N -4.382	-14.792	-3.704
C -4.649	-15.952	-4.24
N -3.682	-16.696	-4.701
N -5.884	-16.367	-4.313
H -1.112	-10.234	-1.986
H -3.677	-10.955	-0.716
H -3.774	-11.711	-3.113
H -2.363	-12.723	-2.804
H -4.059	-13.386	-0.72
H -5.17	-13.161	-2.071
H -2.651	-14.767	-2.475
H -4.076	-15.521	-1.735
H -4.614	-13.966	-4.18
H -2.735	-16.378	-4.645
H -3.887	-17.586	-5.11
H -6.626	-15.797	-3.959
H -6.089	-17.256	-4.722
N -1.715	-11.519	0.923
C -0.815	-12.166	1.914
H -2.191	-10.699	1.16
H -1.304	-13.034	2.327
H 0.103	-12.464	1.43
H -1.2746644295302012	-4.856604026845638	-8.314463087248322
H -0.5916644295302014	-11.455060402684564	2.721167785234899
