52

O -5.859	-3.227	1.582
C -3.812	-3.819	0.457
H -3.899	-1.43	1.61
H -4.809	-1.741	-1.206
H -5.778	-3.779	-0.393
H -6.545	-3.899	1.548
H -3.069	-3.093	0.164
H -3.646	-4.111	1.483
H -3.737	-4.688	-0.18
N -6.505	-0.299	1.154
C -7.755	0.464	1.432
C -7.577	1.93	1.028
O -6.561	2.314	0.483
C -7.971	0.347	2.943
O -6.757	-0.033	3.575
C -9.045	-0.703	3.228
H -5.761	-0.265	1.789
H -8.588	0.026	0.906
H -8.293	1.298	3.333
H -6.922	-0.101	4.519
H -9.793	-0.675	2.448
H -8.592	-1.683	3.256
H -9.511	-0.495	4.18
N -8.557	2.752	1.288
H -9.368	2.422	1.727
C -2.476	-1.891	-4.868
S -1.537	-0.559	-4.089
H -1.901	-2.803	-4.839
H -2.688	-1.629	-5.895
C 1.107	-0.222	-0.856
C -0.206	-0.513	-0.122
O -0.612	-1.647	0.027
C 0.91	-0.193	-2.376
S -0.217	-1.51	-2.895
H 1.51	0.727	-0.524
H 0.495	0.761	-2.664
H 1.865	-0.328	-2.863
N -0.861	0.512	0.344
C -2.14	0.317	1.086
C -3.209	-0.261	0.163
O -3.319	0.107	-0.99
H -0.506	1.414	0.213
H -1.974	-0.358	1.907
H -2.48	1.265	1.472
N -4.006	-1.159	0.672
C -5.084	-1.761	-0.163
C -6.398	-1.007	0.061
O -7.304	-1.064	-0.747
C -5.205	-3.206	0.321
H -3.4009868421052634	-2.031789473684211	-4.338631578947369
H 1.831251700680272	-1.0139455782312927	-0.6769387755102041
H -8.478591836734694	3.7497959183673473	1.031265306122449
