76

H -5.135	9.739	-5.128
H -7.234	7.876	-4.207
H -6.757	8.295	-5.868
N -3.473	6.099	-2.035
C -3.54	5.278	-0.798
C -2.91	6.049	0.372
O -1.707	6.186	0.475
C -2.791	3.978	-1.155
C -1.536	3.795	-0.335
C -1.629	3.343	0.98
C -0.283	4.047	-0.901
C -0.469	3.142	1.736
C 0.878	3.843	-0.152
C 0.786	3.391	1.169
H -2.746	6.743	-2.155
H -4.57	5.049	-0.571
H -3.445	3.138	-0.973
H -2.526	3.999	-2.202
H -2.598	3.155	1.414
H -0.214	4.4	-1.913
H -0.542	2.793	2.755
H 1.846	4.038	-0.59
H 1.683	3.228	1.745
N -3.726	6.569	1.247
C -3.186	7.338	2.402
C -2.335	6.426	3.281
O -2.608	5.256	3.416
C -4.418	7.818	3.171
C -4.261	9.298	3.519
C -5.604	9.854	3.994
C -3.225	9.457	4.631
H -4.694	6.457	1.142
H -2.611	8.183	2.06
H -5.299	7.684	2.56
H -4.521	7.243	4.08
H -3.933	9.84	2.648
H -5.989	9.234	4.79
H -5.468	10.863	4.355
H -6.302	9.857	3.17
H -2.695	8.526	4.767
H -2.526	10.234	4.361
H -3.723	9.726	5.55
N -1.307	6.949	3.881
C -0.456	6.099	4.759
C 0.627	5.53	3.843
C 1.694	4.877	4.687
C 1.33	4.097	5.791
C 3.046	5.055	4.371
C 2.318	3.494	6.579
C 4.034	4.453	5.16
C 3.671	3.672	6.263
O 4.644	3.078	7.04
H -1.098	7.899	3.765
H -1.039	5.296	5.18
H 0.186	4.796	3.178
H 1.064	6.327	3.263
H 0.286	3.961	6.034
H 3.328	5.655	3.519
H 2.036	2.893	7.43
H 5.078	4.589	4.915
H 4.92	3.713	7.705
C -5.933	5.761	-5.647
O -6.976	5.71	-6.268
N -5.562	6.806	-4.947
C -4.286	6.846	-4.195
C -4.391	5.966	-2.948
O -5.306	5.179	-2.811
C -4.182	8.324	-3.802
C -5.426	9.062	-4.338
C -6.407	8.019	-4.886
H -3.453	6.559	-4.816
H -4.143	8.414	-2.726
H -3.29	8.754	-4.235
H -5.894	9.616	-3.537
H -5.255255033557047	4.927604026845637	-5.66444966442953
H -0.017946308724832216	6.710838926174496	5.558268456375839
