47

O -6.954	14.581	4.295
O -9.2	13.37	3.179
O -6.487	12.363	0.832
O -9.935	11.41	0.676
O -3.558	15.578	2.839
H -0.733	7.987	-0.079
H -5.369	11.454	2.332
H -5.482	14.496	2.06
H -6.811	12.543	3.989
H -7.878	11.307	2.0
H -7.981	14.397	1.84
H -9.214	13.28	0.146
H -8.385	11.881	-0.617
H -2.355	13.499	5.084
H -2.544	15.245	5.458
H -4.265	12.864	4.239
H -7.518	14.327	5.03
H -1.399	14.711	4.181
C -2.368	14.51	4.659
H -9.829	14.02	2.855
H -10.765	11.869	0.526
C -5.373	12.379	1.739
C 0.106	10.133	2.686
O 0.243	8.954	2.435
C -6.802	13.48	3.41
N -0.599	10.913	1.915
C -1.256	10.358	0.697
C -0.206	9.887	-0.314
O 0.524	10.676	-0.882
C -2.07	11.518	0.129
C -3.525	11.381	0.578
O -4.089	10.303	0.564
N -4.136	12.468	0.976
H -0.704	11.861	2.141
H -1.912	9.545	0.963
H -1.669	12.452	0.49
H -2.023	11.497	-0.95
H -3.76	13.347	0.757
N -0.132	8.604	-0.547
C -5.484	13.575	2.665
C -7.81	12.25	1.442
C -8.847	12.257	0.307
C -3.481	14.613	3.62
C -7.993	13.462	2.427
N -4.369	13.601	3.602
H 0.5513154362416107	10.569241610738255	3.5528993288590605
H 0.5584081632653061	8.237632653061224	-1.2242244897959185
