18

C 1.2442851379	0.6769096442	1.1881747135
H 6.1969216773	1.639509111	-1.8829582618
H 7.3414826158	0.0313029097	-0.3856913448
H 6.0082470428	-1.2645306758	1.2504305562
H 3.5898564903	-0.9680725503	1.3917818667
H 3.7655534384	1.9438625871	-1.742591758
H 1.6611312304	1.4815144681	-0.8224941321
C 5.627602843	1.0657201557	-1.1632351096
C 6.2697961646	0.1663990254	-0.326275438
C 5.5205266458	-0.5591162642	0.5902151663
C 4.146919904	-0.3883377518	0.6679891448
C 3.4878497339	0.5138196221	-0.1694816903
C 4.2522918973	1.2365570669	-1.0833268055
C 2.0094234269	0.7343260385	-0.1203541698
H 1.7964574763	0.5405896322	2.1090050655
H 0.3178037340664429	1.2125972938469798	1.186692289827517
H 1.1203872419532894	-0.08595647678947371	0.46863426907960526
H 1.3469084459335527	-0.0689582021611842	0.08124084968157896
