48

C         1.4035052277    0.6449879509   -0.0118329918
C         1.0349954149    2.0437652474   -0.1358929660
C         1.7226964248    3.2491997902    0.0573724087
C         1.0593304001    4.4369909480   -0.1617167503
C        -0.2866644327    4.4480683963   -0.5667835394
C        -0.9909249851    3.2765412086   -0.7439586753
C        -0.3086982602    2.0816565531   -0.5152438263
H         2.7566498555    3.2474905831    0.3734397042
H         1.5778030762    5.3758796837   -0.0202705669
H        -0.7805542197    5.3954738214   -0.7383341968
H        -2.0272220976    3.2756204110   -1.0482622336
N        -0.7631580458    0.7845181467   -0.5755197544
C         0.2913300803   -0.0834403387   -0.2982584206
C         0.1392567491   -1.5574119221   -0.4182531189
C         2.7467706994    0.1319556844    0.3609123844
C         3.8772151395    0.5385078500   -0.3500784867
C         5.1390742574    0.0745548237   -0.0075427968
C         5.2945620109   -0.8073248135    1.0527580887
C         4.1785606016   -1.2179326797    1.7678628170
C         2.9176564976   -0.7495282886    1.4277521353
H         3.7647033268    1.2167171290   -1.1854998871
H         6.0019171520    0.3997664680   -0.5741508772
H         6.2780815213   -1.1703757768    1.3205072422
H         4.2887811627   -1.9019534664    2.5991690314
H         2.0562402808   -1.0665305503    1.9985073690
C        -0.7248048629   -2.2757013282    0.4074406532
C        -0.8399362793   -3.6520765462    0.2785747591
C        -0.0932815598   -4.3294772514   -0.6754969929
C         0.7713731289   -3.6240399634   -1.4999372040
C         0.8864262412   -2.2472740485   -1.3722440929
H        -1.3041681873   -1.7598438005    1.1589414430
H        -1.5129414565   -4.1951349908    0.9284717077
H        -0.1833812447   -5.4032525972   -0.7739575270
H         1.3593198801   -4.1444043178   -2.2441774700
H         1.5640944780   -1.7009696664   -2.0131070810
N        -1.9816912002    0.4548908765   -1.1063697583
C        -3.0410708547    0.1250519367   -0.2409984593
C        -4.0991286873   -0.6326390591   -0.7392121941
C        -5.1894911272   -0.9214070850    0.0644043741
C        -5.2448743338   -0.4644930777    1.3744034472
C        -4.1900645565    0.2908641426    1.8644716351
C        -3.0926966387    0.5915126660    1.0690708663
H        -4.0654772078   -0.9989554966   -1.7576557699
H        -6.0006037113   -1.5140486115   -0.3382272897
H        -6.0960791129   -0.6926444227    2.0007795112
H        -4.2163226992    0.6592962082    2.8818086998
H        -2.2831067070    1.1866018431    1.4643097663
H        -1.9017670548   -0.1360991603   -1.9092917082
