27

C -0.6980334053	1.4973821217	0.1092246607
C 0.8639044104	1.2408081866	0.2158045526
C 1.4396102852	-0.1945643788	-0.0972566115
C 0.5286046195	-1.4738579234	-0.2750893669
C -0.6676155458	2.247990856	1.44943558
C 0.8273156113	1.8926086555	1.623259994
C 1.8543641486	1.8160860277	-0.8261965423
C 2.1941050378	0.3946725048	-1.3141467775
C 2.3007790094	-0.9840777345	0.9226050331
C 1.5831681702	-2.29018209	0.5139498468
O 0.3038405556	-1.9337270533	-1.5768841403
H -1.340749047	1.8668570716	2.2183931047
H -0.8508978904	3.3184461154	1.3410622853
H 1.4923802508	2.7528943764	1.7163177534
H 1.040153223	1.2256791055	2.4568929636
H 2.7025612342	2.2970413092	-0.3353460584
H 1.4639754064	2.5077255751	-1.5713962638
H 1.7329175358	0.1512207677	-2.2704677903
H 3.2561237793	0.1499970113	-1.3772124315
H 2.137324713	-0.7058608293	1.9614323658
H 3.3756968935	-0.9576205475	0.7386220292
H 2.1849444223	-2.8893550847	-0.1730781958
H 1.2405960549	-2.9493100037	1.3095170276
H 1.1307385609	-2.1179966267	-1.994982218
H -0.43288796675263175	-1.2571890407730262	0.16669335293947368
H -1.1952949133782895	0.5568758804164474	-0.09880166072697372
H -1.0880202646519737	1.876370837026316	-0.8225262802414475
