51

C -7.249	17.08	3.3
O -6.256	17.805	3.37
N -8.301	17.215	4.101
C -8.352	18.248	5.129
C -8.517	17.629	6.514
O -7.582	17.614	7.314
C -9.502	19.218	4.851
O -9.375	19.806	3.569
H -9.062	16.606	3.996
H -7.419	18.791	5.099
H -10.439	18.684	4.897
H -9.497	20.001	5.596
H -9.291	20.758	3.66
N -9.713	17.119	6.788
C -10.002	16.499	8.076
C -10.946	15.312	7.909
O -11.754	15.274	6.98
C -10.617	17.523	9.033
C -10.61	18.927	8.459
O -11.63	19.415	7.972
N -9.457	19.582	8.513
H -10.418	17.161	6.109
H -9.07	16.147	8.491
H -11.64	17.244	9.24
H -10.055	17.528	9.955
H -8.685	19.131	8.914
H -9.424	20.492	8.149
N -10.839	14.346	8.815
C -11.683	13.157	8.768
C -12.913	13.328	9.655
O -13.983	12.792	9.363
C -10.89	11.925	9.208
C -10.347	11.12	8.061
C -9.263	11.577	7.329
C -10.922	9.908	7.716
C -8.761	10.839	6.273
C -10.424	9.165	6.662
C -9.343	9.632	5.939
H -10.176	14.433	9.531
H -12.006	13.021	7.747
H -10.055	12.241	9.815
H -11.531	11.282	9.791
H -8.807	12.522	7.59
H -11.767	9.542	8.279
H -7.916	11.207	5.71
H -10.881	8.222	6.402
H -8.953	9.053	5.115
N -12.752	14.077	10.741
H -11.875	14.477	10.919
H -7.304838926174496	16.298953020134228	2.578979865771812
H -13.511795918367348	14.244224489795918	11.387
