48

C -0.444	-2.135	11.032
C 0.47	-2.685	12.122
O 1.685	-2.771	11.943
C -0.305	-0.613	10.954
C 0.061	-0.113	9.586
C 1.132	-0.66	8.898
C -0.666	0.904	8.988
C 1.472	-0.203	7.638
C -0.331	1.365	7.728
C 0.74	0.811	7.053
H -0.154	-2.563	10.085
H -1.244	-0.158	11.232
H 0.463	-0.293	11.642
H 1.706	-1.454	9.355
H -1.503	1.338	9.515
H 2.309	-0.638	7.114
H -0.905	2.158	7.273
H 1.003	1.17	6.069
N -0.123	-3.056	13.252
C 0.638	-3.597	14.373
C 1.522	-2.523	14.999
O 2.717	-2.731	15.208
C 1.497	-4.776	13.911
C 1.945	-5.651	15.065
O 1.162	-6.429	15.609
N 3.212	-5.528	15.444
H -1.095	-2.964	13.335
H -0.066	-3.945	15.114
H 0.925	-5.383	13.225
H 2.374	-4.399	13.407
H 3.779	-4.887	14.965
H 3.529	-6.082	16.188
N 0.926	-1.373	15.297
C 1.658	-0.266	15.901
C 1.642	0.979	14.995
C 2.838	0.971	14.055
C 0.339	1.051	14.213
H -0.03	-1.267	15.107
H 2.684	-0.577	16.033
H 1.71	1.856	15.621
H 2.69	1.707	13.278
H 3.734	1.206	14.61
H 2.937	-0.008	13.608
H 0.318	1.962	13.633
H 0.269	0.201	13.549
H -0.494	1.04	14.899
H -1.4543129251700682	-2.403591836734694	11.213972789115646
H 1.2393355704697986	-0.0024496644295302072	16.877644295302012
