50

H -0.81	7.273	19.652
H -2.682	6.29	21.701
H -0.494	7.687	22.235
H -1.536	9.048	21.818
H -1.79	8.705	23.982
N -4.078	8.75	21.36
H -3.803	8.816	22.299
C 1.075	0.101	17.261
O 0.078	-0.475	17.698
N 1.703	1.065	17.927
C 1.247	1.51	19.238
C 1.099	3.027	19.284
O 1.989	3.732	19.759
C 2.217	1.067	20.35
O 2.591	-0.302	20.157
C 1.581	1.235	21.722
H 2.492	1.486	17.527
H 0.284	1.058	19.428
H 3.102	1.684	20.302
H 3.547	-0.367	20.094
H 2.257	0.87	22.48
H 0.658	0.676	21.762
H 1.376	2.281	21.897
N -0.03	3.521	18.787
C -0.294	4.955	18.773
C -1.282	5.342	19.868
O -1.952	4.485	20.446
C -0.849	5.412	17.411
C -0.235	4.582	16.282
C -0.574	6.893	17.197
C -1.051	3.36	15.918
H -0.701	2.908	18.422
H 0.641	5.467	18.949
H -1.918	5.266	17.416
H -0.147	5.195	15.399
H 0.747	4.248	16.583
H -1.345	7.475	17.679
H 0.386	7.145	17.624
H -0.566	7.109	16.14
H -0.604	2.483	16.363
H -2.059	3.478	16.285
H -1.069	3.247	14.843
N -1.37	6.639	20.147
C -2.275	7.14	21.174
C -3.424	7.927	20.549
O -3.709	7.79	19.359
C -1.517	8.024	22.165
O -2.105	7.968	23.453
H 1.4819261744966443	-0.15516107382550334	16.311738255033557
H -4.853061224489796	9.312734693877552	21.03248979591837
