56

C -1.736	5.114	3.883
C -3.132	4.876	3.32
O -3.943	4.172	3.922
C -1.79	6.286	4.882
O -2.522	5.9	6.05
C -2.441	7.506	4.249
H -1.417	4.229	4.415
H -0.78	6.542	5.168
H -3.376	5.545	5.79
H -2.17	8.389	4.808
H -3.515	7.388	4.26
H -2.1	7.608	3.23
N -3.406	5.466	2.161
C -4.706	5.319	1.517
C -5.123	3.852	1.465
O -6.306	3.528	1.575
C -4.666	5.899	0.101
C -5.996	5.874	-0.595
C -7.17	6.048	0.12
C -6.073	5.677	-1.964
C -8.396	6.024	-0.518
C -7.296	5.653	-2.608
C -8.459	5.828	-1.884
H -2.718	6.015	1.73
H -5.429	5.866	2.101
H -4.337	6.926	0.151
H -3.967	5.33	-0.494
H -7.123	6.203	1.188
H -5.163	5.54	-2.532
H -9.304	6.162	0.05
H -7.341	5.499	-3.676
H -9.415	5.809	-2.384
N -4.144	2.97	1.297
C -4.409	1.537	1.231
C -5.129	1.059	2.488
O -6.33	0.789	2.462
C -3.102	0.763	1.051
C -3.319	-0.736	1.004
O -4.177	-1.187	0.216
O -2.631	-1.46	1.754
H -3.221	3.29	1.215
H -5.044	1.356	0.377
H -2.634	1.07	0.127
H -2.442	0.988	1.876
N -4.387	0.956	3.585
C -4.955	0.511	4.852
C -3.918	0.632	5.97
C -2.818	-0.404	5.854
O -1.952	-0.253	4.967
O -2.822	-1.366	6.651
H -3.435	1.186	3.542
H -5.234	-0.526	4.744
H -3.469	1.614	5.931
H -4.41	0.504	6.923
H -1.0364965986394559	5.298884353741497	3.1070680272108846
H -5.848342281879194	1.0919597315436242	5.105496644295302
