59

H -5.119	14.095	10.97
H -4.44	15.684	10.971
N -5.652	14.452	8.162
C -5.12	15.094	6.966
C -4.322	14.107	6.121
O -3.365	13.497	6.599
C -4.22	16.291	7.324
O -2.906	15.832	7.663
C -4.803	17.077	8.489
H -5.034	14.171	8.869
H -5.954	15.458	6.384
H -4.155	16.943	6.465
H -2.302	16.579	7.683
H -4.291	16.806	9.399
H -5.855	16.85	8.585
H -4.679	18.134	8.307
N -4.72	13.955	4.862
C -4.041	13.044	3.95
C -2.526	13.172	4.072
O -1.798	12.189	3.933
C -4.45	13.304	2.488
C -3.425	12.712	1.533
C -5.836	12.738	2.215
H -5.49	14.469	4.539
H -4.329	12.035	4.208
H -4.483	14.372	2.329
H -3.143	11.726	1.874
H -3.853	12.643	0.543
H -2.552	13.346	1.504
H -6.486	12.963	3.047
H -6.236	13.183	1.315
H -5.769	11.668	2.087
N -2.06	14.388	4.334
C -0.631	14.644	4.475
C -0.364	16.15	4.525
C 0.843	16.581	3.708
C 2.154	16.337	4.43
O 2.611	17.173	5.21
N 2.766	15.187	4.173
H -2.691	15.131	4.434
H -0.134	14.228	3.612
H -1.232	16.67	4.149
H -0.198	16.439	5.552
H 0.852	16.025	2.782
H 0.757	17.636	3.493
H 2.344	14.57	3.539
H 3.615	15.004	4.625
C -7.374	13.557	9.617
C -6.954	14.237	8.317
O -7.791	14.561	7.473
C -7.569	14.605	10.714
C -6.417	15.59	10.784
O -6.618	16.802	10.715
N -5.203	15.07	10.922
H -8.309	13.042	9.454
H -8.477	15.157	10.52
H -7.652	14.107	11.669
H -6.653387755102041	12.837843537414967	9.917619047619047
H -0.23531543624161066	14.164295302013423	5.376241610738255
