51

C -10.581	-1.054	5.192
O -11.628	-1.688	5.326
N -10.159	-0.157	6.077
C -10.92	0.141	7.284
C -12.266	0.771	6.943
O -13.283	0.459	7.564
C -10.145	1.088	8.218
C -9.725	2.352	7.465
C -8.929	0.382	8.798
C -8.835	3.27	8.274
H -9.317	0.316	5.914
H -11.091	-0.788	7.807
H -10.795	1.364	9.035
H -9.187	2.071	6.574
H -10.609	2.907	7.187
H -9.242	-0.523	9.297
H -8.243	0.134	8.002
H -8.438	1.032	9.507
H -9.204	3.329	9.288
H -7.827	2.883	8.279
H -8.839	4.256	7.833
N -12.266	1.656	5.953
C -13.488	2.327	5.528
C -14.38	1.388	4.723
O -15.605	1.492	4.764
C -13.179	3.575	4.68
C -12.518	3.172	3.36
C -12.287	4.534	5.454
C -12.204	4.344	2.458
H -11.424	1.863	5.497
H -14.021	2.642	6.414
H -14.11	4.079	4.469
H -11.593	2.659	3.57
H -13.18	2.507	2.824
H -11.425	4.001	5.828
H -11.961	5.329	4.8
H -12.839	4.952	6.282
H -13.096	4.935	2.311
H -11.438	4.954	2.912
H -11.855	3.98	1.502
N -13.755	0.469	3.994
C -14.492	-0.489	3.177
C -13.584	-1.074	2.094
O -14.22	-2.145	1.419
H -12.776	0.436	4.003
H -15.309	0.037	2.705
H -13.342	-0.305	1.377
H -12.675	-1.44	2.55
H -13.809	-2.974	1.674
H -9.959791946308725	-1.2026711409395974	4.340456375838926
H -14.902046979865773	-1.2954496644295306	3.7960201342281876
