60

H -14.774	0.004	9.813
H -15.02	1.37	8.734
H -15.498	1.754	11.184
H -16.755	2.239	10.046
H -15.916	-0.957	11.303
H -17.453	-1.271	12.027
N -17.117	1.806	7.317
C -18.052	2.735	6.691
C -17.293	3.901	6.054
C -17.249	5.196	6.866
C -15.817	5.544	7.239
C -17.891	6.335	6.086
H -16.162	2.02	7.32
H -18.704	3.119	7.462
H -16.276	3.581	5.887
H -17.761	4.119	5.105
H -17.809	5.059	7.781
H -15.443	4.818	7.945
H -15.79	6.527	7.685
H -15.201	5.534	6.352
H -17.499	6.347	5.08
H -17.666	7.274	6.571
H -18.96	6.192	6.055
C -15.063	-1.612	4.039
O -15.984	-2.318	3.63
N -14.508	-1.77	5.236
C -14.96	-2.805	6.159
C -15.812	-2.205	7.273
O -16.564	-2.915	7.941
C -13.761	-3.541	6.759
C -14.145	-4.758	7.583
C -13.832	-4.556	9.056
C -12.405	-4.969	9.385
N -12.279	-5.463	10.784
H -13.776	-1.176	5.506
H -15.561	-3.507	5.601
H -13.114	-3.865	5.957
H -13.216	-2.859	7.396
H -15.204	-4.937	7.473
H -13.594	-5.615	7.222
H -13.957	-3.512	9.302
H -14.515	-5.151	9.646
H -12.107	-5.754	8.707
H -11.758	-4.115	9.253
H -12.51	-4.701	11.453
H -11.307	-5.783	10.964
H -12.93	-6.258	10.943
N -15.689	-0.896	7.467
C -16.449	-0.203	8.5
C -17.531	0.677	7.882
O -18.715	0.34	7.918
C -15.516	0.647	9.365
C -16.232	1.397	10.476
C -17.233	0.53	11.215
O -18.358	0.952	11.483
N -16.827	-0.69	11.548
H -15.073	-0.385	6.902
H -16.92	-0.949	9.122
H -14.664449664429531	-0.8281610738255033	3.4373355704697985
H -18.660248322147652	2.2272885906040267	5.9348187919463085
