56

H -14.073	6.576	4.679
H -12.225	6.879	2.933
H -12.114	8.45	2.14
H -11.915	8.329	3.888
H -14.171	9.401	5.708
H -14.126	7.923	6.67
H -12.736	8.377	5.686
N -12.373	10.876	2.301
C -11.172	11.691	2.443
C -9.946	10.919	1.953
C -9.807	10.894	0.44
C -9.158	9.62	-0.066
O -8.328	9.02	0.617
N -9.534	9.201	-1.268
H -12.676	10.624	1.405
H -11.048	11.919	3.491
H -9.059	11.376	2.367
H -10.013	9.9	2.304
H -10.79	10.978	-0.001
H -9.203	11.735	0.132
H -10.2	9.731	-1.756
H -9.131	8.381	-1.62
C -16.182	11.099	0.112
C -15.702	10.901	1.547
O -16.107	11.631	2.452
C -17.709	11.018	0.059
C -18.249	9.605	0.194
C -18.209	9.128	1.636
C -19.575	8.652	2.104
N -19.645	8.538	3.587
H -15.869	12.074	-0.228
H -18.118	11.616	0.861
H -18.046	11.421	-0.886
H -19.272	9.585	-0.152
H -17.649	8.941	-0.412
H -17.508	8.31	1.716
H -17.886	9.944	2.267
H -20.321	9.357	1.771
H -19.774	7.685	1.667
H -20.043	9.408	3.994
H -18.693	8.39	3.979
H -20.248	7.735	3.856
N -14.837	9.912	1.745
C -14.301	9.622	3.069
C -13.065	10.467	3.359
O -12.748	10.743	4.516
C -13.936	8.133	3.214
C -14.386	7.606	4.579
C -12.439	7.934	3.031
C -13.815	8.382	5.744
H -14.552	9.366	0.984
H -15.064	9.858	3.797
H -14.446	7.583	2.438
H -15.461	7.657	4.641
H -15.752544217687074	10.374748299319727	-0.533639455782313
H -11.268946308724832	12.62958389261745	1.8871744966442954
