15

C -2.5058801783	-0.795601408	-0.0989678097
C -2.2759917033	-0.4873574918	-1.5836123431
C -3.9351453744	-1.0985515373	0.3081021599
C -4.9708084613	-0.004700988	0.1878589348
C -4.2673512865	-2.3006808593	0.7614132275
H -5.9622448606	-0.3811811341	0.4382193602
H -4.7483313567	0.8266803637	0.8608933336
H -5.0115635879	0.4027641289	-0.8245868206
H -5.2842873508	-2.5403164934	1.0482335597
H -3.5344413975	-3.0922932353	0.8621725184
H -1.9040982251	-1.6724873388	0.1548296888
H -2.4132200698	-1.3590457684	-2.2258573622
H -2.9833339331	0.2747230947	-1.919802512
H -2.051511482444079	0.06947272868947374	0.3568775953381579
H -1.2643165960835525	-0.10397832227434206	-1.6137640605611843
