25

C -0.8388457566	0.0572559079	-1.6264446894
C -0.513646088	0.6345034004	-0.195146839
C -1.860421844	0.4332889544	0.5485882797
C 0.6622899241	-0.1425870534	0.4305613579
C 0.600702826	-0.5218916939	1.8913673498
C 1.2288825105	2.3709983393	-0.922094098
C -0.1471113541	2.15360354	-0.2713842238
H 1.4815070775	3.4344552711	-0.881760083
H 1.1784358539	2.112546459	-1.9836887564
C -0.216451641	2.8853173864	1.0775264994
H -0.896378527	2.6236890546	-0.9186740092
H -1.1975255167	2.797799417	1.5444763831
H 0.5223992684	2.5205801056	1.7918446481
H -0.0233842929	3.950645388	0.9278195957
H 1.4736600464	-1.076969963	2.2131079384
H 0.5162046283	0.3519246623	2.5477934924
H -0.2669426359	-1.1516014947	2.09893443
H -0.1591830934	-0.7571493686	-1.8711290968
H -0.7218236608	0.8073365928	-2.4097186527
H -1.7711772033	0.3544403337	1.6292926744
H -2.4931156204	1.3016731196	0.3492012366
H -2.314790539855921	-0.43178518228947377	0.09274287466184211
H -1.8505208638164474	-0.3261232616256579	-1.5962929719388157
H 1.580664900105369	-0.01273336443892617	-0.1009928722100672
H 2.0136958442723687	1.7876423203736842	-0.46927010855921053
