20

H 3.5161176418	-3.0778677923	0.041340284
H 2.0522674519	-2.5857481812	0.8821996372
H 2.0775790877	-2.6338595893	-0.876694064
C 1.9780386878	0.0434533279	-0.3309922987
C 2.3437575267	1.5423056769	-0.278830113
C 3.1725233345	-0.9325199811	-0.0614886783
H 1.7293353217	-0.148198148	-1.3776973638
H 2.5062970111	1.8580803917	0.7549758609
H 3.2763553587	1.738941446	-0.8098440982
C 4.1330661278	-0.8612169222	-1.2675695464
C 3.9958674095	-0.5883622466	1.1938126948
C 2.6698518474	-2.3866732613	0.0083370709
H 4.9708263307	-1.548280707	-1.1248709156
H 3.627571298	-1.1456006628	-2.1939110457
H 4.5534204644	0.1352232275	-1.407936113
H 4.7933712825	-1.3240780175	1.3284173918
H 4.4720691391	0.3893667258	1.0989373963
H 3.4068698128	-0.5771432984	2.1093085657
H 1.033172125948322	-0.09014614055033557	0.21589522650939608
H 1.5589441929276315	2.1256616958263157	-0.7316541024407894
