14

H 4.2279723359	-1.4771406663	0.8803783403
H 3.1989792864	-2.9055733001	0.7647972361
H 1.5097458911	-3.1331933072	-1.1672921985
H 1.5089156714	-1.9274192883	-2.4563546288
H 2.8969791809	-3.0049979222	-2.2453856134
C 2.8026424985	-1.4032126636	-0.7909405345
C 3.7312421457	-2.1527535818	0.1841395107
C 2.1315549855	-2.4299996317	-1.7185018624
C 3.6653824701	-0.4944909483	-1.687241524
H 3.0412495013	0.0687596092	-2.3804256587
H 4.2650053765	0.2067014796	-1.111086986
H 4.3562440974	-1.1077500107	-2.2712141251
H 4.5072773308	-2.6709316308	-0.3850428833
H 2.015106035724161	-0.8084805045416107	-0.29629288120604025
