8

C -2.8718468583	-1.0944895387	0.3553360553
O -3.7784618066	-1.0872547484	-0.4000725142
C -1.9371627525	0.0752735066	0.5943259238
O -2.3780655888	1.1601123046	-0.1513690155
H -2.6325141007	-1.988268058	0.9604206929
H -1.9617408811	0.2794821638	1.6729026058
H -1.7984303567	1.8888011789	0.0348933556
H -0.9300803076605262	-0.20694782385657895	0.3157338654519737
