12

C -0.0705161076	-1.4411662926	-0.1814541103
C -0.2400551275	-0.6839568623	-1.365130148
C 0.2400551275	0.6839568623	-1.365130148
C 0.0705161076	1.4411662926	-0.1814541103
C -0.0232208016	0.6939478731	1.0180173714
C 0.0232208016	-0.6939478731	1.0180173714
H 0.17539325521879195	-2.5231304457382553	-0.15634063345167787
H -0.9276340918114094	-0.9934317435563759	-2.18966521624698
H 0.9276340918114094	0.9934317435563759	-2.18966521624698
H -0.17539325521879195	2.5231304457382553	-0.15634063345167787
H -0.03135776758356164	1.164188488491781	1.9858087227369863
H 0.03135776758356164	-1.164188488491781	1.9858087227369863
