14

H 3.1212904436	2.138528596	-2.6853578219
C 1.2251442206	1.1273391441	-2.5464351977
H 0.0022061988	2.4843223519	-3.8068137821
H 0.2205038003	0.8961932743	-4.5026642997
H 1.5545309244	2.0204412039	-4.4749023745
C 0.6989976598	1.658557608	-3.899888511
C 2.1087640044	-0.1108113174	-2.8505268423
C 2.2536233949	2.157662103	-2.0233616079
H 2.6512921013	-0.4240013965	-1.9573768215
H 2.8446887321	0.1561868649	-3.6125422517
H 1.551222147	-0.9616807114	-3.2183034973
H 1.8889374896	3.1757623603	-2.0252120881
H 2.5979380941	1.9130071041	-1.0194925891
H 0.5177312477026845	0.8089371028073825	-1.6981154640228189
