14

H -2.3055526314	2.4057614092	0.5077020828
H -1.9834260563	4.1397336227	0.5470092489
H -1.3492109968	3.125614314	1.804893881
C -0.2817963449	2.991288012	-0.1454742252
C -0.7428000309	3.5403442858	-1.5091266109
C 0.8084602571	3.9422916245	0.4005776062
C -1.5499466809	3.1576422991	0.740113008
H -1.5558376103	2.9489529649	-1.929825764
H 0.0489572154	3.6139616768	-2.2391803345
H -1.1180318912	4.5539927689	-1.3593853908
H 1.2562854303	3.5764493562	1.3158050914
H 0.3484209806	4.9119716952	0.6116669636
H 1.6024277606	4.1203109829	-0.319160069
H -0.028793442769127486	1.8781133544442952	-0.17131212926510067
