11

H -2.6258770124	3.6216804203	0.4568412236
H -1.9413905405	2.7566576503	-0.8975798079
H -4.1517559238	1.7900443611	0.9788268798
H -4.3267118454	2.2030335024	-0.717469553
C -1.3003226769	2.0183185518	1.0284161473
C -2.3682745027	2.6212235442	0.0991887316
C -3.6388172048	1.7649527632	0.0113143524
H -0.3995028468	2.6264271968	0.9852357376
H -1.6632119875	2.0805556789	2.0614940075
H -1.0973130804295301	0.968056596633557	0.8178962301651006
H -3.4121777143526315	0.7378192229414473	-0.23694665620526317
