11

H -4.9339980192	-0.4185006232	0.8417816566
H -4.2886691441	-2.6585058267	0.821980765
H -3.8084475225	-2.6389985559	-0.8576603488
C -4.4811828772	-0.6898494414	-0.1175504878
H -5.2448559058	-1.0135518905	-2.1392780845
C -3.7758613955	-2.0590098455	0.0673885725
H -6.3821786839	-1.4108448532	-0.8555285915
H -6.0691331246	0.2759316471	-1.2556121711
C -5.6012096343	-0.706462222	-1.1540000655
H -3.6615622884184207	0.011068570263815802	-0.2750974312644737
H -2.7440537243315792	-1.8436640780605262	0.35187614732894745
