44

N         3.4924579019   -1.3305917889    0.0843151820
C         3.0237804157   -0.1163204172   -0.2135734446
C         1.7394102320    0.1100682036   -0.6614771301
C         0.7672840651   -0.9330463344   -0.7627074036
C        -0.6534721285   -0.5393382233   -1.2299490034
O         0.9192645171   -2.1047962883   -0.5180427148
C        -1.6772952313   -0.6247453140   -0.0804385493
C        -3.0273077897    0.0753352067   -0.3571240861
C        -4.1405378918   -0.4198889708    0.5673698868
C        -5.4251548012    0.3959807506    0.5019965220
C         3.9434426781    1.0605203190   -0.1068558513
C         5.0864232224    1.1308277941   -0.9008960632
C         5.9133808176    2.2408220525   -0.8367838733
C         5.6130513749    3.2845374581    0.0298341999
C         4.4778239477    3.2177688210    0.8229097430
C         3.6393979548    2.1128075528    0.7494215535
H         5.3192568300    0.3214314767   -1.5797582973
H         6.7919251315    2.2928979936   -1.4656289474
H         6.2614630433    4.1488225397    0.0821659058
H         4.2378413667    4.0281084197    1.4978613734
H         2.7488336242    2.0664240869    1.3607105006
C         4.6499428271   -1.6656342559    0.9136469417
C         4.2210546589   -1.8977176257    2.3626726375
C         5.3501241097   -2.8845646748    0.3203450620
H         5.3358335511   -0.8238483780    0.8870302270
H         6.2244384687   -3.1498800414    0.9173576099
H         4.6817119998   -3.7495252406    0.3011121452
H         5.6759802229   -2.6863051271   -0.7018387727
H         5.0851694774   -2.1474319075    2.9822655858
H         3.7512328756   -1.0036363423    2.7762661142
H         3.5040176023   -2.7197692521    2.4301861743
H         2.8139908528   -2.0624208987   -0.0277144078
H         1.4725133397    1.1079310112   -0.9581512248
F        -0.6907530337    0.7052843176   -1.7176690849
F        -1.0356899013   -1.3643049240   -2.1991444690
F        -1.9265174218   -1.9051278637    0.1789235163
F        -1.1370575215   -0.0710306547    1.0011365089
F        -3.3982654314   -0.1834312555   -1.6109292633
F        -2.8568619456    1.3864693839   -0.2356885019
H        -4.3795899556   -1.4435124383    0.2965838315
F        -3.7118542779   -0.3784266525    1.8483992238
F        -6.3440919758   -0.2018938908    1.2332119269
F        -5.2676663919    1.6111153193    0.9670122399
F        -5.8728174536    0.4728119669   -0.7321667708
