40

C        -2.5977032703    0.3566377647    0.9366026836
C        -1.7039904539    0.2771840737   -0.1151338777
C        -2.0914832665   -0.4171759282   -1.2654897511
C        -3.3325601875   -1.0070901402   -1.3505316298
C        -4.2299535039   -0.9222531298   -0.2826758263
C        -3.8566009454   -0.2378739070    0.8632540625
C        -0.3450260579    0.9590058558   -0.0563333712
N         0.6844705874    0.0957134903   -0.5855999191
C         1.5318528849   -0.1404857615    0.3136482223
C         1.1318221162    0.5615873217    1.5930045947
O         0.0092909289    1.2057454326    1.2976568867
C        -0.3723500986    2.3112461024   -0.7942601929
C         2.7355661504   -0.9781681574    0.1323168530
C         3.0540960092   -1.4291217230   -1.1514579111
C         4.1676246360   -2.2217097879   -1.3555060265
C         4.9766636530   -2.5753268651   -0.2798317119
C         4.6673433081   -2.1301491248    0.9947010934
C         3.5506049749   -1.3304976327    1.2053405707
O         1.6469195173    0.5745457191    2.6518476506
C         0.9511494067    3.0063020677   -0.8760344490
C         1.4121190397    3.9533184308   -0.0885508775
O        -5.4145537741   -1.5334090854   -0.4638498345
C        -6.3727558905   -1.5120276094    0.5577449260
F         1.6971090322    2.5677280662   -1.8944352778
H        -0.7392277027    2.1424708122   -1.8055165147
H        -1.4051942678   -0.5062346416   -2.0956263362
H        -3.6340471657   -1.5499167654   -2.2347461890
H        -4.5206071584   -0.1552606850    1.7094815649
H        -2.3217425730    0.8808295723    1.8392909892
H         3.3171311167   -0.9813775633    2.1980711816
H         5.2948061353   -2.4015204370    1.8326641442
H         5.8484154973   -3.1959880844   -0.4402292343
H         4.4093221476   -2.5642802632   -2.3524898405
H         2.4232392480   -1.1456464317   -1.9803702326
H        -7.2282961619   -2.0669400137    0.1824338726
H        -6.6842148940   -0.4920039878    0.7931283021
H        -6.0023519576   -1.9962522723    1.4638419497
H         0.8147116785    4.3068048167    0.7379738237
H         2.3900590449    4.3827016326   -0.2526438241
H        -1.0885986285    2.9457695389   -0.2762041558
