37

H 9.374	-3.052	6.551
H 11.316	-5.145	6.821
H 8.784	-4.967	7.754
H 8.493	-5.814	6.263
N 9.709	-4.838	3.981
C 9.776	-5.167	2.555
C 11.007	-4.519	1.976
O 11.839	-5.179	1.361
C 8.543	-4.619	1.809
C 7.188	-5.208	2.171
C 6.078	-4.425	1.491
C 7.12	-6.65	1.736
H 9.065	-4.171	4.29
H 9.824	-6.24	2.437
H 8.495	-3.555	1.988
H 8.706	-4.771	0.752
H 7.041	-5.166	3.24
H 5.122	-4.855	1.755
H 6.21	-4.465	0.42
H 6.112	-3.396	1.82
H 7.905	-7.21	2.225
H 7.237	-6.716	0.664
H 6.162	-7.058	2.024
N 11.087	-3.213	2.23
H 10.361	-2.803	2.745
C 11.286	-2.654	6.181
O 12.394	-3.068	5.878
N 10.241	-3.452	6.342
C 10.397	-4.909	6.304
C 10.513	-5.415	4.872
O 11.304	-6.306	4.58
C 9.244	-5.605	7.011
C 9.671	-6.935	7.612
O 10.335	-6.947	8.659
O 9.348	-8.0	7.026
H 11.110107382550336	-1.620979865771812	6.282906040268457
H 11.809326530612244	-2.5829591836734695	1.915673469387755
