69

H 8.246	11.858	-1.388
H 8.84	10.198	-1.417
H 9.798	11.488	-2.143
H 9.281	11.402	2.142
H 6.979	11.17	0.89
C 12.128	-2.305	1.777
C 11.85	-1.875	0.368
O 12.174	-2.555	-0.605
C 13.562	-2.812	1.957
C 14.559	-1.709	1.721
O 14.732	-0.862	2.635
O 15.184	-1.65	0.647
H 11.989	-1.415	2.376
H 13.685	-3.184	2.963
H 13.754	-3.608	1.253
N 11.177	-0.773	0.275
C 10.758	-0.228	-0.982
C 11.83	0.757	-1.446
O 12.794	0.37	-2.098
C 9.345	0.464	-0.827
C 8.86	1.115	-2.123
C 8.313	-0.555	-0.343
H 11.007	-0.272	1.098
H 10.683	-1.038	-1.695
H 9.414	1.234	-0.072
H 9.569	1.87	-2.431
H 7.895	1.571	-1.959
H 8.779	0.364	-2.893
H 8.237	-1.359	-1.059
H 7.353	-0.071	-0.243
H 8.62	-0.951	0.615
N 11.658	1.989	-1.066
C 12.544	3.089	-1.33
C 11.782	4.266	-0.853
O 10.574	4.151	-0.606
C 12.854	3.299	-2.814
C 14.027	4.225	-3.043
O 15.19	3.762	-2.936
O 13.819	5.401	-3.393
H 10.87	2.246	-0.543
H 13.448	2.972	-0.75
H 12.983	2.378	-3.361
H 11.991	3.844	-3.161
N 12.39	5.367	-0.81
C 11.777	6.506	-0.235
C 12.852	7.388	0.423
O 12.26	8.262	1.441
H 13.26	5.4	-1.261
H 11.084	6.161	0.519
H 13.594	6.757	0.89
H 13.322	8.001	-0.33
O 13.926	9.937	0.654
P 12.874	9.686	1.67
O 13.218	9.822	3.121
O 11.667	10.627	1.399
C 11.071	10.59	0.068
C 9.83	11.462	0.002
C 10.286	12.901	0.089
C 9.127	11.237	-1.335
C 8.817	11.151	1.199
O 7.615	11.893	1.006
H 11.798	10.946	-0.647
H 10.803	9.571	-0.166
H 9.425	13.552	0.048
H 10.944	13.119	-0.74
H 10.813	13.06	1.018
H 11.370265306122448	-2.9659251700680276	2.106734693877551
H 11.213275167785236	7.03238255033557	-1.0206241610738256
H 8.510362416107384	10.096080536912751	1.2593221476510066
