49

H 4.08	7.851	-2.62
H 6.057	9.244	-4.465
H 3.488	10.238	-3.226
H 3.734	9.849	-4.927
H 4.603	11.203	-4.197
H 5.389	9.801	-1.58
H 6.42	10.797	-2.607
H 6.91	9.154	-2.191
N 4.922	6.372	-5.337
C 4.412	5.747	-6.527
C 3.381	4.707	-6.109
O 2.368	4.517	-6.775
C 5.554	5.1	-7.299
C 6.714	6.043	-7.593
C 6.323	7.218	-8.455
O 5.924	8.279	-7.906
O 6.428	7.113	-9.681
H 5.821	6.114	-5.048
H 3.936	6.501	-7.135
H 5.934	4.269	-6.723
H 5.173	4.73	-8.238
H 7.097	6.418	-6.656
H 7.491	5.484	-8.095
N 3.651	4.059	-4.964
C 2.726	3.106	-4.36
C 3.317	2.487	-3.054
C 2.345	1.497	-2.418
C 4.647	1.803	-3.337
H 4.51	4.243	-4.527
H 2.511	2.322	-5.072
H 3.49	3.288	-2.35
H 2.784	1.088	-1.52
H 2.138	0.697	-3.113
H 1.426	2.006	-2.168
H 5.036	1.379	-2.423
H 5.346	2.529	-3.723
H 4.503	1.022	-4.069
C 5.6	5.794	-2.324
O 4.456	5.359	-2.238
N 5.88	6.943	-2.914
C 4.837	7.821	-3.394
C 4.188	7.232	-4.643
O 3.025	7.479	-4.919
C 5.351	9.269	-3.648
C 4.211	10.21	-4.028
C 6.069	9.793	-2.419
H 6.814	7.207	-3.048
H 6.435489932885906	5.229328859060403	-1.9777986577181208
H 1.7945973154362416	3.628073825503356	-4.135946308724832
