48

C 1.429	3.833	-4.048
O 0.356	3.342	-4.364
N 1.559	5.014	-3.443
C 0.424	5.898	-3.149
C -0.384	6.144	-4.433
O -1.54	5.73	-4.523
C 0.936	7.26	-2.605
C -0.214	8.228	-2.36
C 1.742	7.06	-1.335
H 2.464	5.297	-3.187
H -0.201	5.428	-2.406
H 1.587	7.693	-3.348
H -0.893	7.814	-1.629
H -0.753	8.391	-3.281
H 0.174	9.17	-1.999
H 1.122	6.599	-0.581
H 2.091	8.018	-0.977
H 2.589	6.424	-1.545
N 0.262	6.786	-5.416
C -0.346	7.097	-6.731
C -1.077	5.871	-7.324
O -2.26	5.959	-7.721
C 0.738	7.592	-7.744
C 0.133	7.861	-9.119
C 1.418	8.852	-7.231
H 1.184	7.083	-5.238
H -1.063	7.889	-6.579
H 1.487	6.82	-7.847
H -0.627	8.623	-9.036
H -0.312	6.953	-9.499
H 0.907	8.194	-9.796
H 2.161	9.176	-7.946
H 1.898	8.641	-6.286
H 0.684	9.632	-7.098
N -0.378	4.748	-7.392
C -0.933	3.525	-7.939
C -2.106	3.009	-7.108
O -3.096	2.559	-7.662
C 0.139	2.455	-8.07
H 0.55	4.745	-7.064
H -1.296	3.754	-8.93
H 0.961	2.834	-8.659
H -0.276	1.582	-8.553
H 0.495	2.187	-7.087
N -2.006	3.105	-5.787
H -1.202	3.512	-5.391
H 2.334288590604027	3.325563758389262	-4.265771812080537
H -2.733877551020408	2.7733265306122448	-5.161816326530612
