53

C -8.341	8.546	-3.251
C -7.61	8.575	-1.921
O -8.188	8.912	-0.88
C -9.115	9.862	-3.475
C -8.252	11.124	-3.485
C -7.246	11.09	-4.618
C -6.367	12.333	-4.647
N -7.144	13.574	-4.85
H -7.603	8.437	-4.032
H -9.624	9.803	-4.425
H -9.853	9.964	-2.693
H -8.889	11.987	-3.609
H -7.723	11.193	-2.546
H -6.612	10.223	-4.497
H -7.779	11.014	-5.554
H -5.839	12.405	-3.708
H -5.651	12.229	-5.449
H -7.802	13.484	-5.656
H -6.508	14.361	-5.107
H -7.671	13.861	-4.0
N -6.375	8.172	-1.948
C -5.538	8.209	-0.782
C -4.306	8.989	-1.148
O -3.334	8.414	-1.61
C -5.065	6.811	-0.329
C -6.196	5.797	-0.4
C -4.529	6.895	1.108
C -5.746	4.383	-0.148
H -5.998	7.833	-2.786
H -6.066	8.696	0.025
H -4.258	6.498	-0.975
H -6.943	6.053	0.334
H -6.645	5.837	-1.382
H -3.657	7.539	1.145
H -4.252	5.908	1.452
H -5.296	7.291	1.758
H -6.596	3.719	-0.204
H -5.288	4.313	0.827
H -5.03	4.117	-0.912
N -4.338	10.303	-1.019
C -3.193	11.113	-1.356
C -3.744	12.539	-1.311
C -4.899	12.475	-0.379
C -5.475	11.102	-0.525
H -2.815	10.885	-2.342
H -2.977	13.207	-0.947
H -4.053	12.84	-2.301
H -4.562	12.634	0.635
H -5.633	13.219	-0.651
H -5.821	10.732	0.431
H -6.283	11.101	-1.241
H -8.99682993197279	7.727122448979592	-3.2822993197278914
H -2.4030671140939597	10.975120805369126	-0.6141812080536911
