42

H -0.733	11.662	-1.587
H 0.511	10.156	0.318
H 2.403	11.716	0.282
H 1.765	11.482	-1.337
N -0.878	12.774	1.671
C -1.321	13.389	2.92
C -2.015	12.368	3.856
O -1.635	12.233	5.022
C -2.264	14.548	2.617
C -2.709	15.283	3.852
O -1.999	16.214	4.288
O -3.785	14.968	4.387
H -1.22	13.126	0.82
H -0.445	13.779	3.414
H -1.763	15.249	1.967
H -3.139	14.166	2.112
N -3.001	11.631	3.331
C -3.743	10.603	4.119
C -2.888	9.404	4.333
O -2.988	8.713	5.35
C -5.035	10.145	3.424
C -6.177	11.122	3.476
O -6.17	12.104	2.73
O -7.136	10.894	4.267
H -3.25	11.753	2.389
H -3.971	11.0	5.094
H -4.809	9.962	2.385
H -5.35	9.217	3.876
N -2.037	9.173	3.378
H -2.047	9.768	2.596
C -2.093	10.921	-0.323
O -2.368	10.421	0.792
N -0.864	11.315	-0.674
C 0.305	11.211	0.225
C -0.004	11.771	1.619
O 0.49	11.27	2.612
C 1.56	11.906	-0.365
C 1.42	13.402	-0.516
O 0.89	13.859	-1.539
O 1.831	14.154	0.378
H -2.860785234899329	11.055013422818792	-1.044020134228188
H -1.3798979591836735	8.424306122448979	3.396734693877551
