49

C -10.424	-8.077	1.005
O -9.646	-7.763	0.119
N -10.127	-8.007	2.307
C -8.858	-7.461	2.846
C -7.648	-8.117	2.197
O -6.639	-7.469	1.927
C -8.792	-7.674	4.354
C -9.956	-7.071	5.117
C -9.918	-7.376	6.604
O -10.955	-7.488	7.254
N -8.744	-7.491	7.158
H -10.778	-8.382	2.946
H -8.844	-6.399	2.645
H -8.768	-8.736	4.554
H -7.88	-7.229	4.722
H -9.936	-5.999	4.987
H -10.875	-7.463	4.706
H -7.94	-7.373	6.613
H -8.714	-7.702	8.118
N -7.788	-9.384	1.93
C -6.765	-10.195	1.303
C -6.469	-9.68	-0.087
O -5.312	-9.574	-0.48
C -7.18	-11.68	1.224
C -7.578	-12.333	2.554
C -8.995	-12.011	3.005
O -9.21	-10.919	3.562
O -9.915	-12.821	2.785
H -8.636	-9.791	2.214
H -5.851	-10.116	1.871
H -8.021	-11.767	0.552
H -6.356	-12.241	0.809
H -7.506	-13.405	2.443
H -6.886	-12.007	3.316
N -7.516	-9.308	-0.792
C -7.409	-8.808	-2.142
C -8.756	-8.905	-2.846
C -8.742	-8.459	-4.293
C -10.049	-8.71	-4.961
O -10.93	-7.834	-4.904
O -10.221	-9.774	-5.588
H -8.404	-9.358	-0.38
H -6.698	-9.437	-2.651
H -9.087	-9.933	-2.814
H -9.463	-8.293	-2.305
H -8.528	-7.401	-4.327
H -7.968	-9.001	-4.818
H -11.40606711409396	-8.404355704697986	0.7516308724832215
H -7.030550335570469	-7.781087248322148	-2.1362550335570467
