61

C -12.567	-0.723	3.675
O -13.695	-1.015	3.288
N -12.291	0.306	4.432
C -13.332	1.139	5.013
C -13.888	2.087	3.973
O -15.099	2.242	3.822
C -12.751	1.939	6.168
C -13.8	2.692	6.95
O -14.469	2.099	7.819
O -13.993	3.889	6.685
H -11.341	0.51	4.583
H -14.121	0.506	5.389
H -12.233	1.258	6.825
H -12.037	2.647	5.773
N -12.986	2.7	3.256
C -13.31	3.676	2.24
C -13.934	3.067	0.983
O -15.076	3.389	0.652
C -12.068	4.496	1.898
C -11.942	5.774	2.665
N -12.216	6.996	2.112
C -11.54	6.022	3.934
C -11.987	7.941	2.997
N -11.579	7.378	4.113
H -12.045	2.478	3.43
H -14.032	4.352	2.676
H -11.219	3.89	2.18
H -11.985	4.694	0.843
H -12.589	7.134	1.206
H -11.245	5.285	4.668
H -12.115	9.001	2.834
H -11.764	7.802	4.989
N -13.197	2.153	0.342
C -13.545	1.521	-0.957
C -14.16	2.461	-1.977
O -15.375	2.686	-1.972
C -14.407	0.296	-0.787
C -13.704	-0.88	-0.159
C -12.509	-1.358	-0.964
O -12.465	-1.252	-2.188
N -11.526	-1.86	-0.283
H -12.399	1.805	0.803
H -12.602	1.199	-1.376
H -15.196	0.611	-0.126
H -14.821	0.005	-1.742
H -13.367	-0.606	0.83
H -14.411	-1.692	-0.088
H -11.617	-1.887	0.692
H -10.745	-2.185	-0.777
N -13.317	2.975	-2.845
C -13.692	3.894	-3.905
C -14.449	5.101	-3.36
O -15.678	5.205	-3.555
C -14.479	3.179	-5.006
O -13.835	5.932	-2.672
H -12.375	2.722	-2.788
H -12.761	4.239	-4.325
H -14.657	3.865	-5.821
H -15.424	2.839	-4.609
H -13.91	2.334	-5.363
H -11.728718120805368	-1.2869731543624159	3.369281879194631
