50

C -2.313	-4.428	-4.476
O -1.587	-3.974	-5.356
N -2.092	-4.248	-3.182
C -0.938	-3.563	-2.677
C 0.325	-4.298	-3.099
O 1.29	-3.685	-3.536
C -1.025	-3.484	-1.157
C -2.098	-2.561	-0.582
C -2.163	-2.715	0.921
C -1.803	-1.109	-0.945
H -2.742	-4.583	-2.525
H -0.923	-2.562	-3.08
H -1.227	-4.483	-0.798
H -0.069	-3.181	-0.771
H -3.061	-2.827	-0.993
H -1.208	-2.455	1.354
H -2.402	-3.738	1.167
H -2.927	-2.063	1.319
H -2.575	-0.476	-0.534
H -1.785	-1.005	-2.019
H -0.845	-0.823	-0.537
N 0.284	-5.616	-2.986
C 1.381	-6.487	-3.361
C 1.744	-6.327	-4.831
O 2.918	-6.289	-5.169
C 1.031	-7.925	-3.049
H -0.525	-6.028	-2.609
H 2.236	-6.211	-2.762
H 0.779	-8.015	-2.003
H 1.876	-8.562	-3.27
H 0.184	-8.228	-3.648
N 0.727	-6.223	-5.689
C 0.914	-5.981	-7.14
C 1.758	-4.758	-7.346
O 2.795	-4.781	-8.04
C -0.431	-5.719	-7.808
C -1.411	-6.844	-7.713
C -1.078	-8.007	-8.613
O -0.339	-8.913	-8.216
O -1.587	-8.03	-9.759
H -0.179	-6.337	-5.32
H 1.388	-6.82	-7.611
H -0.878	-4.852	-7.347
H -0.257	-5.504	-8.852
H -1.396	-7.159	-6.682
H -2.384	-6.448	-7.966
N 1.317	-3.722	-6.708
H 0.517	-3.849	-6.152
H -3.1547718120805373	-5.0101208053691275	-4.717503355704698
H 1.7277755102040817	-2.8289795918367346	-6.750326530612245
