62

C 1.909	-2.435	-6.769
C 3.349	-2.476	-6.233
O 4.284	-2.027	-6.903
C 1.034	-1.463	-5.962
C -0.332	-1.34	-6.635
C 1.697	-0.113	-5.833
C -1.355	-0.609	-5.82
H 1.855	-2.156	-7.809
H 0.889	-1.87	-4.973
H -0.216	-0.808	-7.567
H -0.706	-2.332	-6.843
H 1.064	0.552	-5.265
H 1.864	0.286	-6.823
H 2.644	-0.242	-5.33
H -1.01	0.392	-5.612
H -1.502	-1.156	-4.901
H -2.281	-0.575	-6.374
N 3.515	-3.017	-5.035
C 4.825	-3.147	-4.407
C 5.766	-3.975	-5.276
O 6.926	-3.621	-5.446
C 4.723	-3.777	-2.989
C 6.097	-4.015	-2.372
C 3.912	-2.887	-2.081
H 2.715	-3.341	-4.558
H 5.234	-2.151	-4.316
H 4.212	-4.723	-3.078
H 6.662	-4.69	-2.999
H 5.981	-4.45	-1.391
H 6.622	-3.074	-2.292
H 3.846	-3.339	-1.101
H 2.92	-2.767	-2.489
H 4.389	-1.922	-2.001
N 5.26	-5.046	-5.842
C 6.066	-5.918	-6.687
C 6.6	-5.148	-7.874
O 7.76	-5.258	-8.222
C 5.255	-7.089	-7.21
C 6.132	-8.166	-7.829
O 5.788	-8.739	-8.857
N 7.189	-8.535	-7.141
H 4.318	-5.283	-5.679
H 6.89	-6.293	-6.099
H 4.697	-7.517	-6.391
H 4.565	-6.733	-7.961
H 7.348	-8.114	-6.267
H 7.802	-9.215	-7.513
N 5.745	-4.348	-8.46
C 6.089	-3.554	-9.611
C 4.803	-2.991	-10.227
C 4.996	-2.159	-11.479
C 3.686	-1.653	-12.027
O 3.022	-2.375	-12.789
O 3.296	-0.511	-11.711
H 4.832	-4.294	-8.098
H 6.564	-4.198	-10.336
H 4.15	-3.814	-10.475
H 4.314	-2.378	-9.484
H 5.618	-1.31	-11.239
H 5.483	-2.762	-12.232
H 1.4780884353741497	-3.371795918367347	-6.724598639455783
H 6.784140939597316	-2.7360604026845636	-9.3388322147651
