57

H 4.849	0.028	-8.703
H 6.385	2.618	-6.485
H 7.532	2.368	-7.807
H 7.852	1.68	-6.209
H 3.321	1.876	-8.427
H 4.429	2.654	-7.294
H 3.649	1.131	-6.864
N 8.332	-1.269	-5.936
C 9.394	-1.527	-4.964
C 10.291	-2.651	-5.461
O 11.472	-2.702	-5.148
C 8.782	-1.953	-3.647
H 7.439	-1.637	-5.776
H 9.949	-0.607	-4.792
H 9.568	-2.144	-2.931
H 8.194	-2.847	-3.792
H 8.144	-1.164	-3.275
N 9.69	-3.576	-6.199
C 10.415	-4.713	-6.739
C 10.408	-5.882	-5.783
O 11.12	-6.863	-5.975
H 8.73	-3.482	-6.378
H 9.943	-5.018	-7.661
H 11.437	-4.436	-6.947
N 9.584	-5.786	-4.771
C 9.523	-6.794	-3.733
C 9.286	-6.136	-2.333
C 10.415	-5.141	-1.999
C 9.151	-7.184	-1.23
C 11.81	-5.755	-1.982
H 8.983	-5.015	-4.735
H 10.472	-7.309	-3.713
H 8.355	-5.59	-2.379
H 10.413	-4.352	-2.736
H 10.225	-4.714	-1.025
H 10.056	-7.772	-1.18
H 8.313	-7.831	-1.446
H 8.987	-6.691	-0.283
H 12.034	-6.166	-2.955
H 11.845	-6.542	-1.242
H 12.536	-4.995	-1.734
C 7.057	-2.415	-9.232
O 8.18	-2.36	-9.717
N 6.627	-1.572	-8.319
C 7.349	-0.347	-7.973
C 8.557	-0.596	-7.05
O 9.672	-0.183	-7.361
C 6.365	0.647	-7.305
C 5.221	0.947	-8.272
C 7.085	1.926	-6.929
C 4.076	1.705	-7.673
H 5.779	-1.782	-7.865
H 7.697	0.103	-8.891
H 5.956	0.226	-6.4
H 5.624	1.583	-9.044
H 6.381348993288591	-3.2100067114093958	-9.496536912751678
H 8.725885906040268	-7.51858389261745	-3.9484362416107386
