59

C 8.413	-7.803	-4.033
O 7.324	-7.403	-4.432
N 8.733	-9.122	-3.947
C 7.794	-10.236	-4.074
C 6.398	-9.95	-3.567
O 6.21	-9.539	-2.415
C 8.45	-11.33	-3.204
C 9.843	-10.847	-2.913
C 10.074	-9.651	-3.784
H 7.674	-10.629	-5.068
H 7.88	-11.451	-2.296
H 8.464	-12.26	-3.751
H 9.922	-10.568	-1.873
H 10.556	-11.624	-3.145
H 10.733	-8.931	-3.324
H 10.447	-9.979	-4.743
N 5.424	-10.209	-4.444
C 3.985	-10.088	-4.156
C 3.671	-10.853	-2.878
O 2.869	-10.434	-2.042
C 3.155	-10.747	-5.32
C 1.655	-10.698	-5.063
C 3.468	-10.113	-6.657
H 5.687	-10.507	-5.341
H 3.707	-9.049	-4.068
H 3.44	-11.787	-5.369
H 1.339	-9.67	-4.97
H 1.43	-11.23	-4.15
H 1.135	-11.163	-5.888
H 4.519	-10.232	-6.874
H 3.23	-9.059	-6.618
H 2.883	-10.59	-7.429
N 4.346	-11.946	-2.722
C 4.088	-12.833	-1.647
C 4.936	-12.579	-0.412
O 4.789	-13.262	0.611
C 4.091	-14.272	-2.092
C 3.041	-14.54	-3.149
C 2.984	-15.965	-3.556
O 2.28	-16.747	-2.893
O 3.63	-16.332	-4.556
H 5.048	-12.135	-3.385
H 3.075	-12.563	-1.421
H 5.063	-14.515	-2.496
H 3.886	-14.909	-1.244
H 2.074	-14.258	-2.76
H 3.271	-13.937	-4.016
N 5.795	-11.584	-0.476
C 6.534	-11.178	0.708
C 7.946	-10.684	0.375
C 8.815	-10.524	1.619
O 9.335	-11.525	2.167
O 8.994	-9.366	2.073
H 5.933	-11.11	-1.326
H 6.577	-12.022	1.383
H 8.422	-11.394	-0.285
H 7.878	-9.726	-0.119
H 9.187765100671141	-7.098731543624161	-3.8236040268456377
H 5.96596644295302	-10.382322147651006	1.1711879194630872
