47

C 0.759	-7.342	7.482
O 0.331	-6.309	7.995
N 1.877	-7.85	7.82
C 2.64	-7.289	8.894
C 3.697	-6.349	8.345
O 4.378	-5.659	9.088
C 3.304	-8.392	9.689
C 4.347	-9.17	8.899
O 3.974	-10.071	8.108
O 5.558	-8.879	9.045
H 2.226	-8.632	7.342
H 1.972	-6.744	9.544
H 3.778	-7.894	10.514
H 2.55	-9.071	10.061
N 3.784	-6.293	7.04
C 4.851	-5.556	6.358
C 4.655	-4.034	6.395
O 3.637	-3.511	5.919
C 4.956	-6.052	4.927
C 5.378	-7.507	4.814
C 6.861	-7.697	5.072
C 7.24	-9.169	5.018
N 8.688	-9.374	4.851
H 3.076	-6.747	6.528
H 5.779	-5.791	6.859
H 3.991	-5.947	4.454
H 5.672	-5.444	4.399
H 4.824	-8.09	5.534
H 5.147	-7.859	3.819
H 7.419	-7.162	4.317
H 7.101	-7.305	6.049
H 6.926	-9.645	5.934
H 6.722	-9.625	4.187
H 8.903	-10.388	4.962
H 9.24	-8.852	5.565
H 8.985	-9.108	3.883
N 5.641	-3.326	6.936
C 5.587	-1.858	7.043
C 6.358	-1.412	8.306
O 5.821	-0.214	8.864
H 6.407	-3.794	7.351
H 4.556	-1.55	7.133
H 6.407	-2.196	9.045
H 7.37	-1.202	7.999
H 5.334	0.263	8.175
H 0.2620335570469799	-7.805463087248322	6.6688456375838925
H 6.035825503355705	-1.3718322147651008	6.144630872483221
