12

C 1.1435030533	1.1208599162	-0.2618740879
C 0.3166747122	2.379212837	-0.0877966105
C -0.9589317352	2.4193351825	0.2593803475
C -1.8147426903	1.1995004963	0.451888302
H -1.9510969386	1.0452979865	1.5297156163
H 1.3222262832	0.9688811742	-1.3306595633
H 0.8293396501	3.319564239	-0.2399801
H -1.4392295329	3.3836695596	0.3937616902
H 0.5916643710828947	0.25287725581184206	0.09737191438421056
H 2.1189259591342102	1.2650798409282895	0.21955676461710527
H -1.341221170430921	0.32204880840131567	0.04537815827697367
H -2.797445047588158	1.3344451316598684	0.005023404216447369
