380
0.xyz
N              -2.088              11.957              -3.952              
C              -1.666              10.549              -4.149              
C              -2.864              9.619               -4.422              
O              -3.482              9.04                -3.529              
C              -0.723              10.157              -2.998              
C              0.589               10.967              -3.012              
C              -0.442              8.655               -2.828              
C              1.373               10.946              -4.333              
H              -1.283              12.547              -3.954              
H              -1.104              10.544              -4.982              
H              -1.19               10.351              -2.134              
H              0.373               11.921              -2.786              
H              1.186               10.607              -2.288              
H              0.037               8.508               -1.967              
H              -1.306              8.16                -2.823              
H              0.123               8.341               -3.586              
H              0.797               11.323              -5.052              
H              2.194               11.498              -4.226              
H              1.617               10.005              -4.545              
H              -2.701              12.225              -4.693              
H              -2.562              12.041              -3.078              
N              -3.191              9.577               -5.715              
C              -4.344              8.814               -6.252              
C              -3.896              7.451               -6.758              
O              -3.588              7.263               -7.933              
C              -5.141              9.521               -7.375              
C              -6.523              9.935               -6.858              
C              -4.427              10.645              -8.115              
H              -2.557              10.136              -6.336              
H              -4.992              8.675               -5.498              
H              -5.29               8.861               -8.1                
H              -7.222              9.607               -7.49               
H              -6.67               9.534               -5.956              
H              -6.566              10.93               -6.795              
H              -3.905              10.259              -8.875              
H              -5.105              11.291              -8.465              
H              -3.809              11.113              -7.485              
N              -3.736              6.543               -5.798              
C              -3.375              5.155               -6.089              
C              -4.326              4.224               -5.311              
O              -5.507              4.527               -5.161              
C              -1.893              4.945               -5.761              
S              -0.645              5.744               -6.817              
H              -3.888              6.901               -4.832              
H              -3.512              4.988               -7.061              
H              -1.742              5.259               -4.805              
H              -1.715              3.943               -5.771              
N              -3.786              3.159               -4.744              
C              -4.508              2.145               -3.967              
C              -4.704              2.556               -2.499              
O              -4.46               1.838               -1.537              
C              -3.661              0.877               -4.125              
C              -3.884              0.357               -5.548              
H              -2.734              3.088               -4.901              
H              -5.422              2.019               -4.38               
H              -2.715              1.095               -4.028              
H              -3.97               0.192               -3.503              
N              -5.087              0.018               -6.014              
C              -3.174              0.745               -6.604              
C              -5.148              0.298               -7.307              
N              -3.952              0.73                -7.686              
H              -5.843              -0.387              -5.486              
H              -2.187              1.01                -6.581              
H              -5.943              0.202               -7.89               
N              -5.324              3.724               -2.36               
C              -5.471              4.4                 -1.064              
C              -6.438              3.678               -0.152              
O              -7.537              3.251               -0.501              
C              -5.78               5.882               -1.263              
O              -4.579              6.457               -1.776              
C              -6.23               6.651               -0.028              
H              -5.699              4.123               -3.25               
H              -4.562              4.424               -0.619              
H              -6.502              5.979               -1.958              
H              -7.224              6.573               0.077               
H              -5.782              6.276               0.787               
H              -5.985              7.618               -0.122              
H              -3.98               6.753               -1.023              
N              -5.793              3.317               0.942               
C              -6.5                2.771               2.119               
C              -6.706              3.791               3.244               
O              -7.294              3.447               4.258               
C              -5.866              1.499               2.681               
O              -4.585              1.813               3.228               
C              -5.809              0.381               1.653               
H              -4.764              3.443               0.915               
H              -7.413              2.447               1.813               
H              -6.454              1.139               3.434               
H              -5.507              -0.469              2.09                
H              -6.718              0.239               1.253               
H              -5.164              0.621               0.924               
H              -4.315              2.75                2.978               
N              -6.45               5.073               2.953               
C              -6.731              6.176               3.894               
C              -8.215              6.552               3.781               
O              -8.66               7.239               2.865               
C              -5.817              7.371               3.593               
H              -6.037              5.228               2.01                
H              -6.551              5.859               4.82                
H              -5.549              7.345               2.632               
H              -6.31               8.217               3.783               
H              -5.005              7.317               4.171               
N              -8.966              5.791               4.576               
C              -10.454             5.792               4.664               
C              -10.995             7.122               5.245               
O              -10.774             8.237               4.383               
C              -10.345             7.405               6.608               
H              -8.389              5.134               5.189               
H              -10.722             5.124               5.361               
H              -12.014             7.023               5.388               
H              -10.047             6.544               7.019               
H              -9.556              8.006               6.482               
H              -11.01              7.849               7.208               
H              -10.024             8.043               3.74                
C              -4.645              12.111              1.303               
O              -3.509              12.542              1.119               
N              -5.528              12.703              2.113               
C              -5.134              13.742              3.078               
C              -4.084              13.268              4.1                 
O              -3.207              14.067              4.425               
C              -6.44               14.246              3.7                 
C              -7.463              13.995              2.595               
C              -7.008              12.667              1.985               
H              -4.802              14.571              2.593               
H              -6.676              13.725              4.511               
H              -6.389              15.215              3.908               
H              -8.371              13.912              2.981               
H              -7.426              14.722              1.924               
H              -7.385              11.894              2.491               
H              -7.276              12.604              1.025               
N              -4.098              12.009              4.589               
C              -2.936              11.473              5.337               
C              -1.859              10.949              4.381               
O              -2.106              10.019              3.607               
C              -3.468              10.324              6.196               
C              -4.968              10.575              6.264               
C              -5.278              11.176              4.895               
H              -2.56               12.174              5.95                
H              -3.285              9.44                5.769               
H              -3.072              10.345              7.111               
H              -5.454              9.722               6.393               
H              -5.176              11.218              6.987               
H              -5.393              10.458              4.208               
H              -6.108              11.736              4.93                
N              -0.753              11.688              4.333               
C              0.515               11.178              3.777               
C              1.182               12.152              2.803               
O              0.764               13.294              2.625               
H              -0.853              12.65               4.717               
H              1.153               10.981              4.54                
H              0.336               10.301              3.301               
N              2.256               11.637              2.217               
C              3.142               12.422              1.324               
C              3.217               11.854              -0.117              
O              2.551               10.865              -0.422              
C              4.529               12.59               1.976               
C              4.586               13.484              3.214               
C              4.145               12.78               4.505               
O              4.897               11.863              4.94                
O              3.09                13.158              5.036               
H              2.433               10.631              2.432               
H              2.813               13.378              1.284               
H              4.841               11.689              2.245               
H              5.131               12.985              1.296               
H              5.517               13.773              3.344               
H              3.978               14.245              3.076               
N              4.238               12.303              -0.841              
C              4.493               12.201              -2.307              
C              4.742               10.812              -2.955              
O              5.231               10.735              -4.075              
C              5.657               13.153              -2.609              
C              6.894               12.822              -1.764              
H              4.972               12.817              -0.214              
H              3.655               12.593              -2.773              
H              5.9                 13.064              -3.564              
H              5.373               14.078              -2.397              
O              6.972               13.1                -0.573              
N              7.825               12.092              -2.335              
H              7.709               11.783              -3.286              
H              8.654               11.838              -1.834              
N              4.437               9.749               -2.221              
C              4.514               8.347               -2.687              
C              3.222               7.577               -2.422              
O              2.644               7.592               -1.331              
C              5.643               7.548               -2.017              
C              7.086               7.991               -2.262              
C              7.952               6.881               -1.677              
C              7.45                8.125               -3.744              
H              4.122               9.987               -1.239              
H              4.683               8.358               -3.682              
H              5.486               7.578               -1.025              
H              5.565               6.597               -2.328              
H              7.254               8.827               -1.783              
H              7.749               6.02                -2.142              
H              8.917               7.109               -1.805              
H              7.758               6.787               -0.701              
H              6.854               8.804               -4.17               
H              8.402               8.416               -3.824              
H              7.329               7.241               -4.194              
N              3.042               6.679               -3.365              
C              2.111               5.546               -3.329              
C              2.871               4.296               -2.869              
O              3.817               3.84                -3.479              
C              1.528               5.29                -4.729              
S              0.473               6.639               -5.377              
H              3.667               6.844               -4.223              
H              1.403               5.742               -2.656              
H              2.286               5.162               -5.363              
H              0.975               4.461               -4.689              
N              2.418               3.845               -1.703              
C              2.708               2.572               -0.997              
C              3.294               1.278               -1.594              
O              4.502               1.067               -1.522              
C              1.457               2.296               -0.143              
C              0.123               2.819               -0.709              
C              -0.329              2.346               -1.966              
C              -0.38               4.032               -0.183              
C              -1.206              3.14                -2.715              
C              -1.275              4.812               -0.912              
C              -1.655              4.361               -2.19               
O              -2.498              5.115               -2.931              
H              1.734               4.562               -1.242              
H              3.341               2.835               -0.167              
H              1.367               1.305               -0.027              
H              1.589               2.721               0.755               
H              -0.029              1.475               -2.303              
H              -0.087              4.324               0.719               
H              -1.512              2.841               -3.615              
H              -1.635              5.654               -0.552              
H              -1.981              5.619               -3.626              
N              2.441               0.429               -2.169              
C              2.382               -1.038              -1.901              
C              3.442               -1.558              -0.915              
O              4.478               -2.103              -1.297              
C              2.281               -1.881              -3.179              
C              2.071               -3.367              -2.858              
C              2.687               -4.282              -3.926              
N              3.193               -5.527              -3.329              
C              4.446               -5.991              -3.418              
N              5.426               -5.302              -3.985              
N              4.696               -7.286              -3.237              
H              1.783               0.886               -2.856              
H              1.459               -1.25               -1.525              
H              1.507               -1.57               -3.699              
H              3.123               -1.795              -3.678              
H              2.501               -3.58               -1.985              
H              1.095               -3.56               -2.815              
H              1.982               -4.497              -4.587              
H              3.436               -3.793              -4.35               
H              2.531               -6.088              -2.8                
H              5.232               -4.385              -4.348              
H              6.342               -5.685              -4.05               
H              3.937               -7.904              -3.014              
H              5.623               -7.636              -3.32               
N              3.124               -1.403              0.372               
C              3.984               -1.898              1.466               
C              3.508               -3.3                1.876               
O              2.572               -3.467              2.648               
C              3.993               -0.96               2.676               
C              4.349               0.473               2.28                
C              4.425               1.389               3.494               
C              4.443               2.843               3.015               
N              4.818               3.742               4.118               
H              2.226               -0.908              0.542               
H              4.921               -1.961              1.134               
H              3.09                -0.956              3.076               
H              4.672               -1.283              3.317               
H              5.237               0.47                1.82                
H              3.65                0.82                1.655               
H              3.627               1.253               4.051               
H              5.258               1.211               3.983               
H              5.105               2.923               2.272               
H              3.532               3.077               2.681               
H              4.808               3.239               4.985               
H              5.738               4.107               3.961               
H              4.168               4.503               4.172               
N              4.11                -4.273              1.198               
C              3.783               -5.695              1.335               
C              4.953               -6.508              1.912               
O              6.135               -6.285              1.63                
C              3.364               -6.241              -0.03               
C              2.772               -7.652              0.06                
S              2.065               -8.255              -1.51               
C              1.317               -9.735              -0.871              
H              4.859               -3.93               0.539               
H              3.006               -5.779              1.975               
H              2.674               -5.637              -0.43               
H              4.163               -6.275              -0.632              
H              3.507               -8.29               0.39                
H              2.058               -7.657              0.799               
H              1.636               -10.532             -1.39               
H              1.564               -9.855              0.094               
H              0.318               -9.675              -0.947              
N              4.553               -7.424              2.778               
C              5.382               -8.473              3.381               
C              4.492               -9.716              3.583               
O              3.478               -9.846              2.891               
C              6.074               -7.95               4.648               
C              5.173               -7.476              5.798               
C              5.205               -8.023              7.005               
C              4.575               -6.223              5.938               
N              4.715               -7.177              7.923               
C              4.328               -6.068              7.317               
C              4.25                -5.178              5.046               
C              3.778               -4.871              7.828               
C              3.695               -3.985              5.544               
C              3.466               -3.828              6.931               
H              3.513               -7.338              3.022               
H              6.088               -8.718              2.73                
H              6.654               -8.676              5.03                
H              6.654               -7.166              4.407               
H              5.552               -8.955              7.213               
H              4.654               -7.364              8.918               
H              4.41                -5.276              4.066               
H              3.614               -4.77               8.813               
H              3.467               -3.261              4.917               
H              3.087               -2.987              7.274               
N              4.849               -10.6               4.509               
C              4.136               -11.871             4.793               
C              2.637               -11.891             4.417               
O              1.847               -11.204             5.058               
C              4.37                -12.264             6.257               
S              6.029               -12.948             6.616               
H              5.713               -10.322             5.052               
H              4.598               -12.609             4.262               
H              4.245               -11.451             6.823               
H              3.694               -12.955             6.507               
N              2.112               -12.699             3.489               
C              2.577               -13.94              2.827               
C              2.504               -15.088             3.841               
O              3.336               -15.209             4.732               
C              3.921               -13.893             2.081               
C              3.966               -12.812             0.998               
O              3.041               -12.799             0.152               
O              4.918               -12.015             1.066               
H              1.107               -12.301             3.188               
H              1.925               -14.144             2.104               
H              4.634               -13.704             2.745               
H              4.066               -14.775             1.652               
N              1.309               -15.669             3.846               
C              0.772               -16.536             4.921               
C              0.665               -15.841             6.299               
O              0.377               -16.482             7.31                
C              1.556               -17.851             5.032               
H              0.734               -15.456             2.977               
H              -0.157              -16.843             4.648               
H              2.136               -17.956             4.227               
H              2.121               -17.827             5.854               
H              0.913               -18.612             5.086               
N              0.684               -14.499             6.295               
C              1.161               -13.625             7.397               
C              2.147               -14.343             8.331               
O              1.961               -14.484             9.549               
C              0.041               -12.825             8.086               
C              -0.94               -13.601             8.966               
C              -1.994              -14.306             8.359               
C              -0.928              -13.365             10.353              
C              -3.068              -14.776             9.137               
C              -2.01               -13.828             11.148              
C              -3.069              -14.529             10.525              
H              0.309               -14.084             5.389               
H              1.668               -12.869             6.963               
H              0.473               -12.132             8.664               
H              -0.495              -12.374             7.372               
H              -1.985              -14.475             7.388               
H              -0.181              -12.886             10.774              
H              -3.814              -15.274             8.708               
H              -2.016              -13.656             12.13               
H              -3.835              -14.858             11.08               
N              3.001               -15.027             7.59                
C              3.944               -16.067             7.997               
C              5.42                -15.61              7.879               
S              5.768               -13.888             8.409               
H              2.946               -14.728             6.542               
H              4.044               -16.728             7.203               
H              5.977               -16.224             8.439               
H              5.692               -15.699             6.92                
H              -4.96119            11.2183             0.79696             
H              -10.9071            5.49542             3.70172             
H              3.72138             -16.6695            8.89609             
