200
4.xyz
C              38.075              7.517               38.281              
O              37.554              7.553               39.392              
N              37.769              8.346               37.297              
C              36.812              9.426               37.428              
C              35.581              8.923               36.665              
O              35.693              8.525               35.495              
C              37.362              10.664              36.742              
C              36.489              11.891              36.819              
C              37.004              12.948              35.857              
C              38.543              13.094              35.917              
N              39.345              12.09               35.106              
H              38.287              8.151               36.399              
H              36.57               9.543               38.371              
H              38.253              10.883              37.158              
H              37.513              10.442              35.771              
H              35.558              11.652              36.564              
H              36.512              12.258              37.742              
H              36.758              12.694              34.927              
H              36.605              13.829              36.091              
H              38.788              14.029              35.602              
H              38.834              13.025              36.889              
H              38.963              12.048              34.189              
H              40.291              12.394              35.074              
H              39.281              11.202              35.549              
N              34.44               8.891               37.345              
C              33.185              8.435               36.771              
C              32.416              9.576               36.109              
O              32.174              10.615              36.722              
C              32.289              7.79                37.852              
O              32.938              6.627               38.393              
C              30.938              7.4                 37.275              
H              34.525              9.225               38.337              
H              33.386              7.741               36.065              
H              32.155              8.46                38.61               
H              30.207              7.664               37.909              
H              30.795              7.865               36.398              
H              30.903              6.408               37.13               
H              33.299              6.825               39.31               
N              32.003              9.368               34.864              
C              31.254              10.387              34.148              
C              30.068              9.85                33.365              
O              30.218              9.05                32.449              
C              32.168              11.185              33.244              
O              33.159              11.839              34.05               
C              31.366              12.222              32.468              
H              32.254              8.448               34.465              
H              30.905              11.065              34.827              
H              32.652              10.554              32.606              
H              30.394              11.979              32.483              
H              31.486              13.125              32.885              
H              31.683              12.254              31.518              
H              33.022              11.616              35.02               
N              28.888              10.315              33.746              
C              27.631              9.911               33.125              
C              27.265              10.857              31.999              
O              27.519              12.06               32.083              
C              26.516              9.914               34.174              
C              25.113              9.643               33.643              
C              24.954              8.259               33.052              
H              28.932              11.003              34.538              
H              27.762              8.994               32.731              
H              26.725              9.213               34.867              
H              26.506              10.814              34.63               
H              24.462              9.746               34.398              
H              24.904              10.321              32.935              
O              24.05               8.012               32.245              
N              25.819              7.338               33.461              
H              25.766              6.381               33.118              
H              26.543              7.604               34.127              
N              26.674              10.307              30.947              
C              26.255              11.113              29.81               
C              25.257              10.325              28.972              
O              25.036              9.136               29.208              
C              27.467              11.483              28.97               
H              26.541              9.281               31.004              
H              25.806              11.943              30.146              
H              27.986              12.204              29.43               
H              28.05               10.679              28.851              
H              27.166              11.811              28.074              
N              24.595              11.006              28.047              
C              23.66               10.348              27.14               
C              24.143              10.693              25.756              
O              24.07               11.847              25.339              
C              22.235              10.846              27.336              
C              21.651              10.387              28.641              
H              24.794              12.024              28.024              
H              23.773              9.374               27.261              
H              22.245              11.842              27.319              
H              21.675              10.496              26.59               
O              20.886              9.421               28.692              
N              22.049              11.046              29.722              
H              22.696              11.804              29.642              
H              21.7                10.785              30.625              
N              24.645              9.695               25.043              
C              25.18               9.923               23.706              
C              24.892              8.733               22.801              
O              24.374              7.714               23.256              
C              26.701              10.151              23.781              
C              27.136              11.402              24.547              
C              28.653              11.524              24.665              
C              29.299              11.839              23.321              
N              30.791              12.018              23.337              
H              24.625              8.769               25.503              
H              24.742              10.74               23.314              
H              27.112              9.354               24.226              
H              27.05               10.221              22.844              
H              26.783              12.212              24.07               
H              26.742              11.371              25.469              
H              28.867              12.26               25.3                
H              29.02               10.662              24.998              
H              29.071              11.092              22.667              
H              28.877              12.688              22.947              
H              31.058              12.437              24.202              
H              31.226              11.126              23.243              
H              31.055              12.607              22.577              
N              25.163              8.906               21.509              
C              24.993              7.852               20.52               
C              26.238              6.998               20.649              
O              27.329              7.537               20.85               
C              24.959              8.442               19.109              
C              23.827              9.393               18.883              
H              25.508              9.864               21.269              
H              24.21               7.308               20.767              
H              25.822              8.93                18.938              
H              24.88               7.692               18.444              
N              22.58               8.984               18.459              
C              23.737              10.731              19.067              
C              21.77               10.025              18.397              
N              22.447              11.096              18.761              
H              22.33               8.041               18.234              
H              24.466              11.339              19.367              
H              20.814              10.005              18.122              
N              26.092              5.679               20.591              
C              27.274              4.813               20.681              
C              27.621              4.273               19.302              
O              26.76               4.207               18.42               
C              27.115              3.612               21.691              
C              26.13               2.559               21.165              
C              26.672              4.122               23.053              
C              26.182              1.233               21.904              
H              25.135              5.335               20.484              
H              28.03               5.404               20.959              
H              28.01               3.188               21.783              
H              25.205              2.931               21.233              
H              26.336              2.395               20.2                
H              26.636              3.361               23.699              
H              27.322              4.806               23.382              
H              25.766              4.536               22.977              
H              25.966              1.385               22.866              
H              25.515              0.607               21.503              
H              27.099              0.847               21.822              
N              28.901              3.965               19.105              
C              29.392              3.396               17.854              
C              30.12               2.115               18.237              
O              31.067              2.135               19.036              
C              30.367              4.336               17.096              
C              29.677              5.648               16.719              
C              30.881              3.656               15.836              
C              30.576              6.65                16.016              
H              29.522              4.165               19.922              
H              28.595              3.126               17.338              
H              31.121              4.546               17.71               
H              28.901              5.438               16.123              
H              29.325              6.069               17.557              
H              31.534              4.255               15.376              
H              31.332              2.799               16.079              
H              30.116              3.466               15.223              
H              30.92               6.246               15.171              
H              30.051              7.472               15.807              
H              31.34               6.882               16.614              
N              29.644              1.002               17.693              
C              30.215              -0.317              17.963              
C              30.598              -1.038              16.664              
O              30.049              -0.74               15.6                
C              29.202              -1.235              18.771              
C              28.924              -0.638              20.162              
C              27.884              -1.442              17.981              
H              28.828              1.146               17.056              
H              31.056              -0.191              18.503              
H              29.652              -2.105              18.908              
H              29.353              -1.213              20.855              
H              29.304              0.283               20.203              
H              27.939              -0.605              20.311              
H              27.329              -2.114              18.463              
H              27.407              -0.57               17.929              
H              28.111              -1.769              17.069              
N              31.586              -1.931              16.748              
C              32.01               -2.737              15.604              
C              31.27               -4.072              15.777              
O              31.185              -4.589              16.888              
C              33.529              -2.958              15.639              
H              32.024              -2.003              17.69               
H              31.701              -2.313              14.775              
H              33.934              -2.583              14.808              
H              33.909              -2.496              16.437              
H              33.716              -3.936              15.694              
N              30.728              -4.628              14.702              
H              30.856              -4.105              13.82               
H              30.2256             -5.50853            14.7644             
H              38.759              6.7541              38.0074             
