364
0.xyz
N              6.184               9.58                5.554               
C              6.867               8.882               6.68                
C              8.312               9.373               6.783               
O              9.088               9.25                5.855               
C              6.858               7.374               6.425               
C              7.772               7.05                5.242               
C              7.362               6.643               7.672               
H              5.206               9.627               5.743               
H              6.39                9.129               7.52                
H              5.94                7.112               6.156               
H              8.143               6.129               5.354               
H              7.246               7.099               4.395               
H              8.52                7.711               5.212               
H              7.081               5.686               7.624               
H              8.358               6.704               7.705               
H              6.969               7.073               8.483               
H              6.555               10.501              5.467               
H              6.341               9.072               4.711               
N              8.681               9.931               7.904               
C              10.077              10.429              8.064               
C              10.466              10.393              9.543               
O              10.585              11.416              10.189              
C              10.168              11.867              7.545               
O              8.917               12.249              6.992               
C              11.252              11.956              6.47                
H              7.977               10.004              8.644               
H              10.681              9.817               7.558               
H              10.377              12.488              8.329               
H              12.093              11.528              6.805               
H              10.945              11.482              5.643               
H              11.432              12.917              6.253               
H              8.784               13.245              7.067               
N              10.668              9.223               10.084              
C              11.051              9.12                11.521              
C              12.565              8.919               11.629              
O              13.121              8.004               11.056              
C              10.331              7.928               12.156              
C              9.079               8.417               12.887              
C              9.487               9.345               14.032              
C              8.182               9.179               11.909              
H              10.551              8.402               9.481               
H              10.808              9.977               11.967              
H              10.046              7.332               11.447              
H              10.921              7.53                12.812              
H              8.59                7.634               13.257              
H              9.985               10.128              13.662              
H              8.668               9.663               14.508              
H              10.073              8.846               14.669              
H              7.917               8.571               11.162              
H              7.365               9.497               12.389              
H              8.683               9.962               11.543              
N              13.237              9.769               12.357              
C              14.714              9.625               12.497              
C              15.071              9.39                13.966              
O              14.486              9.971               14.858              
C              15.401              10.9                12.005              
C              15.045              11.134              10.557              
C              13.746              11.522              10.211              
C              16.014              10.962              9.561               
C              13.414              11.738              8.868               
C              15.682              11.178              8.218               
C              14.382              11.566              7.872               
H              12.706              10.517              12.812              
H              14.964              8.798               11.997              
H              15.063              11.646              12.524              
H              16.361              10.769              12.063              
H              13.06               11.646              10.91               
H              16.934              10.688              9.806               
H              12.48               12.015              8.627               
H              16.383              11.051              7.504               
H              14.143              11.721              6.917               
N              16.028              8.541               14.223              
C              16.423              8.269               15.632              
C              17.773              8.928               15.919              
O              18.576              9.133               15.03               
C              16.539              6.759               15.847              
C              16.23               6.426               17.307              
C              15.54               6.038               14.938              
H              16.477              8.087               13.422              
H              15.737              8.687               16.223              
H              17.482              6.496               15.688              
H              17.086              6.311               17.808              
H              15.702              7.171               17.711              
H              15.701              5.58                17.348              
H              15.891              6.038               14.003              
H              15.427              5.099               15.258              
H              14.665              6.517               14.972              
N              18.031              9.261               17.154              
C              19.33               9.906               17.495              
C              20.417              8.835               17.602              
O              20.367              7.969               18.453              
C              19.2                10.64               18.831              
H              17.31               9.059               17.853              
H              19.567              10.538              16.76               
H              18.379              11.208              18.817              
H              19.134              9.972               19.57               
H              20.003              11.216              18.971              
N              21.399              8.885               16.745              
C              22.488              7.869               16.797              
C              23.401              8.162               17.99               
O              24.252              7.369               18.342              
C              23.302              7.929               15.504              
C              22.372              7.737               14.306              
C              22.961              8.445               13.084              
C              22.228              6.243               14.008              
H              21.378              9.642               16.054              
H              22.069              6.974               16.925              
H              23.697              8.811               15.434              
H              23.936              7.197               15.509              
H              21.483              8.13                14.516              
H              23.857              8.056               12.877              
H              22.351              8.318               12.303              
H              23.056              9.42                13.281              
H              21.844              5.782               14.807              
H              21.62               6.119               13.225              
H              23.127              5.86                13.799              
N              23.231              9.295               18.615              
C              24.088              9.638               19.784              
C              23.298              10.517              20.756              
O              22.189              10.928              20.475              
C              25.328              10.398              19.307              
C              26.058              9.577               18.271              
C              26.961              8.584               18.672              
C              25.834              9.809               16.909              
C              27.639              7.824               17.711              
C              26.511              9.049               15.948              
C              27.414              8.056               16.349              
O              28.082              7.307               15.401              
H              22.495              9.916               18.264              
H              24.325              8.787               20.247              
H              25.039              11.238              18.895              
H              25.923              10.534              20.073              
H              27.123              8.417               19.635              
H              25.197              10.508              16.624              
H              28.283              7.115               17.997              
H              26.352              9.213               14.977              
H              27.559              6.479               15.213              
N              23.86               10.809              21.896              
C              23.141              11.661              22.885              
C              23.524              13.127              22.668              
O              24.422              13.44               21.912              
C              23.531              11.236              24.302              
C              25.054              11.148              24.409              
O              25.721              11.679              23.536              
O              25.528              10.552              25.362              
H              24.797              10.43               22.067              
H              22.168              11.574              22.683              
H              23.212              11.917              24.929              
H              23.153              10.35               24.475              
N              22.848              14.03               23.326              
C              23.173              15.474              23.158              
C              22.514              16.276              24.283              
O              21.364              16.069              24.615              
C              22.646              15.962              21.807              
C              22.865              17.451              21.686              
C              24.12               17.946              21.312              
C              21.813              18.337              21.948              
C              24.323              19.327              21.199              
C              22.016              19.717              21.835              
C              23.271              20.212              21.461              
O              23.47               21.573              21.35               
H              22.103              13.696              23.946              
H              24.162              15.574              23.235              
H              23.148              15.513              21.096              
H              21.684              15.784              21.766              
H              24.867              17.322              21.127              
H              20.927              17.989              22.212              
H              25.218              19.681              20.93               
H              21.267              20.35               22.021              
H              22.761              21.959              20.764              
N              23.235              17.19               24.875              
C              22.648              18.002              25.98               
C              22.335              19.408              25.466              
O              23.222              20.202              25.223              
C              23.645              18.097              27.139              
C              24.695              16.991              27.012              
C              25.29               16.691              28.389              
O              24.544              16.717              29.353              
O              26.483              16.441              28.455              
H              24.197              17.313              24.546              
H              21.813              17.562              26.299              
H              24.103              18.945              27.072              
H              23.163              17.951              27.963              
H              24.256              16.187              26.701              
H              25.412              17.312              26.447              
N              21.08               19.724              25.301              
C              20.713              21.079              24.804              
C              21.316              22.141              25.727              
O              20.853              22.352              26.829              
C              19.19               21.222              24.789              
H              20.384              19.007              25.527              
H              21.094              21.19               23.889              
H              18.906              21.807              25.546              
H              18.905              21.631              23.924              
H              18.773              20.32               24.887              
N              22.345              22.811              25.285              
C              22.974              23.858              26.138              
C              22.252              25.19               25.924              
O              22.701              26.23               26.364              
C              24.449              24.006              25.758              
C              24.559              24.642              24.37               
C              25.667              23.954              23.568              
N              26.649              23.327              24.499              
C              27.275              24.06               25.379              
N              27.222              25.362              25.302              
N              27.954              23.489              26.337              
H              22.684              22.581              24.346              
H              22.877              23.584              27.092              
H              24.88               24.601              26.4                
H              24.853              23.119              25.718              
H              23.707              24.524              23.884              
H              24.794              25.597              24.463              
H              25.261              23.251              23.014              
H              26.129              24.634              23.029              
H              26.805              22.366              24.428              
H              26.696              25.836              24.596              
H              27.728              25.928              25.979              
H              27.986              22.486              26.418              
H              28.456              24.044              27.01               
N              21.133              25.165              25.252              
C              20.377              26.427              25.01               
C              18.878              26.122              24.994              
O              18.469              24.978              24.971              
C              20.789              27.02               23.66               
O              20.153              26.299              22.614              
C              22.307              26.924              23.5                
H              20.814              24.253              24.91               
H              20.57               27.049              25.764              
H              20.477              27.992              23.617              
H              22.604              25.983              23.668              
H              22.565              27.192              22.57               
H              22.753              27.534              24.156              
H              19.469              26.875              22.15               
N              18.054              27.134              25.005              
C              16.583              26.896              24.988              
C              16.132              26.6                23.555              
O              14.963              26.398              23.292              
C              15.857              28.14               25.509              
C              15.809              29.207              24.413              
C              15.085              30.448              24.937              
O              14.833              30.503              26.129              
O              14.793              31.322              24.137              
H              18.465              28.072              25.025              
H              16.371              26.121              25.577              
H              14.947              27.891              25.716              
H              16.367              28.499              26.246              
H              16.716              29.466              24.198              
H              15.296              28.861              23.669              
N              17.05               26.574              22.628              
C              16.675              26.293              21.213              
C              16.921              24.815              20.903              
O              16.033              24.103              20.477              
C              17.526              27.158              20.281              
C              16.862              28.525              20.102              
O              15.704              28.554              19.72               
O              17.524              29.519              20.352              
H              18.016              26.753              22.921              
H              15.693              26.454              21.141              
H              18.404              27.288              20.695              
H              17.576              26.717              19.409              
N              18.122              24.346              21.111              
C              18.424              22.915              20.826              
C              17.609              22.022              21.765              
O              16.806              22.495              22.545              
C              19.916              22.655              21.045              
C              20.736              23.705              20.293              
O              21.025              23.48               19.129              
O              21.062              24.716              20.893              
H              18.823              25.001              21.471              
H              18.109              22.736              19.896              
H              20.107              22.735              22.002              
H              20.133              21.771              20.685              
N              17.808              20.733              21.695              
C              17.043              19.811              22.582              
C              18.013              18.879              23.313              
O              19.213              18.949              23.133              
C              16.078              18.975              21.739              
C              15.221              19.902              20.876              
C              15.069              19.301              19.478              
C              13.84               20.057              21.516              
H              18.5                20.403              21.015              
H              16.558              20.363              23.256              
H              16.6                18.415              21.145              
H              15.487              18.496              22.338              
H              15.667              20.788              20.806              
H              14.628              18.407              19.548              
H              14.509              19.908              18.916              
H              15.972              19.198              19.063              
H              13.941              20.448              22.43               
H              13.28               20.663              20.952              
H              13.403              19.16               21.581              
N              17.502              18.005              24.137              
C              18.391              17.067              24.878              
C              17.826              15.649              24.775              
O              16.63               15.443              24.834              
C              18.46               17.485              26.347              
O              17.221              17.188              26.979              
H              16.482              18.002              24.241              
H              19.282              17.082              24.432              
H              19.18               16.976              26.793              
H              18.622              18.459              26.397              
H              16.592              16.801              26.308              
N              18.674              14.669              24.619              
C              18.174              13.27               24.509              
C              19.355              12.299              24.469              
O              20.493              12.68               24.659              
C              17.356              13.125              23.225              
C              18.162              13.637              22.055              
C              18.103              14.991              21.703              
C              18.968              12.758              21.321              
C              18.85               15.466              20.618              
C              19.715              13.233              20.236              
C              19.656              14.587              19.884              
H              19.667              14.91               24.578              
H              17.669              13.085              25.35               
H              17.181              12.182              23.081              
H              16.561              13.675              23.308              
H              17.537              15.615              22.218              
H              19.011              11.799              21.57               
H              18.802              16.437              20.371              
H              20.293              12.595              19.71               
H              20.186              14.928              19.113              
N              19.091              11.046              24.22               
C              20.193              10.045              24.163              
C              19.954              9.098               22.987              
O              18.858              8.999               22.471              
C              20.221              9.244               25.465              
C              20.551              10.159              26.611              
H              18.107              10.797              24.07               
H              21.046              10.537              24.009              
H              19.331              8.847               25.626              
H              20.921              8.549               25.407              
N              21.805              10.18               27.203              
C              19.802              11.09               27.287              
C              21.773              11.096              28.188              
N              20.575              11.681              28.283              
H              22.579              9.63                26.953              
H              18.841              11.312              27.094              
H              22.56               11.312              28.783              
N              20.968              8.399               22.556              
C              20.791              7.462               21.412              
C              19.568              6.576               21.664              
O              19.345              6.106               22.762              
C              22.04               6.588               21.267              
C              22.065              5.53                22.373              
C              23.154              4.499               22.07               
C              24.466              5.218               21.754              
N              24.796              6.16                22.861              
H              21.864              8.529               23.035              
H              20.64               8                   20.586              
H              22.003              6.13                20.402              
H              22.832              7.156               21.364              
H              22.27               5.969               23.237              
H              21.188              5.072               22.404              
H              23.288              3.933               22.865              
H              22.886              3.972               21.283              
H              25.189              4.544               21.667              
H              24.359              5.727               20.908              
H              24.799              7.095               22.509              
H              24.11               6.075               23.583              
H              25.698              5.936               23.227              
N              18.773              6.346               20.655              
H              19.019              6.775               19.758              
H              17.9355             5.75204             20.7813             
