250
1.xyz
C              17.566              5.49                20.837              
C              16.324              6.374               20.976              
O              15.212              5.891               21.042              
H              17.469              4.895               20.043              
H              17.681              4.94                21.66               
N              16.504              7.666               21.022              
C              15.332              8.577               21.158              
C              14.748              8.868               19.773              
O              15.454              9.233               18.855              
C              15.776              9.887               21.812              
C              14.558              10.785              22.041              
C              14.139              10.714              23.51               
O              14.534              9.77                24.174              
O              13.43               11.605              23.947              
H              17.468              8.006               20.961              
H              14.644              8.14                21.732              
H              16.153              9.679               22.676              
H              16.366              10.344              21.2                
H              14.813              11.699              21.852              
H              13.823              10.447              21.51               
N              13.462              8.71                19.617              
C              12.832              8.977               18.293              
C              12.711              10.487              18.081              
O              12.654              11.253              19.022              
C              11.44               8.342               18.252              
C              11.513              6.917               18.807              
C              12.488              6.092               17.966              
C              12.126              4.609               18.069              
N              11.68               4.301               19.458              
H              12.927              8.401               20.434              
H              13.419              8.593               17.584              
H              10.84               8.865               18.821              
H              11.144              8.297               17.32               
H              11.841              6.95                19.74               
H              10.616              6.503               18.758              
H              12.412              6.37                17.024              
H              13.4                6.218               18.316              
H              11.389              4.413               17.434              
H              12.928              4.066               17.851              
H              11.535              3.316               19.548              
H              12.383              4.597               20.104              
H              10.826              4.785               19.645              
N              12.671              10.922              16.851              
C              12.553              12.382              16.582              
C              11.771              12.6                15.285              
O              11.888              11.841              14.343              
C              13.951              12.99               16.441              
C              14.518              13.273              17.812              
C              13.849              14.143              18.682              
C              15.716              12.667              18.212              
C              14.377              14.406              19.951              
C              16.243              12.931              19.482              
C              15.574              13.8                20.351              
H              12.724              10.222              16.105              
H              12.004              12.761              17.323              
H              14.523              12.338              16.006              
H              13.868              13.833              15.968              
H              13.005              14.572              18.405              
H              16.19               12.051              17.597              
H              13.893              15.031              20.569              
H              17.107              12.492              19.765              
H              15.946              13.99               21.256              
N              10.973              13.631              15.229              
C              10.184              13.897              13.993              
C              10.793              15.086              13.246              
O              10.527              16.23               13.558              
C              8.737               14.218              14.373              
C              8.019               12.932              14.784              
C              6.836               12.685              13.847              
H              10.922              14.229              16.06               
H              10.261              13.091              13.411              
H              8.733               14.831              15.14               
H              8.274               14.593              13.591              
H              8.646               12.177              14.705              
H              7.678               13.036              15.702              
O              5.791               13.287              13.997              
N              6.957               11.819              12.878              
H              6.212               11.606              12.242              
H              7.866               11.333              12.765              
N              11.609              14.826              12.261              
C              12.234              15.942              11.497              
C              11.162              16.668              10.683              
O              10.628              16.139              9.728               
C              13.299              15.381              10.553              
C              14.397              14.703              11.374              
C              13.908              16.521              9.735               
C              14.887              15.663              12.46               
H              11.789              13.839              12.051              
H              12.564              16.585              12.182              
H              12.875              14.692              9.981               
H              14.03               13.903              11.8                
H              15.148              14.49               10.782              
H              14.604              16.153              9.123               
H              13.191              16.962              9.2                 
H              14.322              17.185              10.353              
H              14.121              15.899              13.052              
H              15.601              15.214              12.99               
H              15.249              16.484              12.026              
N              10.844              17.879              11.052              
C              9.809               18.64               10.297              
C              10.487              19.465              9.204               
O              10.026              19.529              8.082               
C              9.061               19.575              11.251              
C              8.954               18.923              12.631              
C              8.29                19.898              13.605              
C              8.109               17.651              12.53               
H              11.333              18.263              11.866              
H              9.194               17.983              9.87                
H              9.579               20.389              11.347              
H              8.163               19.701              10.912              
H              9.866               18.701              12.959              
H              7.377               20.127              13.272              
H              8.221               19.47               14.505              
H              8.842               20.728              13.669              
H              8.543               17.016              11.893              
H              8.041               17.227              13.432              
H              7.196               17.886              12.2                
N              11.581              20.096              9.525               
C              12.295              20.917              8.508               
C              13.787              20.575              8.534               
O              14.443              20.693              9.55                
C              12.106              22.402              8.827               
C              11.813              23.167              7.536               
O              12.695              23.38               6.728               
N              10.601              23.592              7.304               
H              11.912              19.997              10.491              
H              11.942              20.639              7.618               
H              11.338              22.501              9.43                
H              12.938              22.751              9.215               
H              9.885               23.402              8.003               
H              10.367              24.086              6.48                
N              14.328              20.151              7.424               
C              15.776              19.8                7.389               
C              16.413              20.38               6.123               
O              17.051              19.68               5.362               
C              15.931              18.278              7.386               
O              14.983              17.712              6.49                
H              13.718              20.076              6.605               
H              16.207              20.227              8.18                
H              16.842              18.048              7.08                
H              15.758              17.936              8.297               
H              14.353              17.129              7                   
N              16.246              21.653              5.892               
C              16.843              22.275              4.676               
C              17.798              23.395              5.095               
O              18.77               23.679              4.425               
C              15.733              22.857              3.801               
O              15.139              23.963              4.468               
H              15.697              22.184              6.575               
H              17.372              21.571              4.208               
H              16.124              23.167              2.948               
H              15.045              22.163              3.651               
H              14.463              23.63               5.123               
N              17.525              24.031              6.2                 
C              18.411              25.132              6.67                
C              19.838              24.606              6.834               
O              20.244              23.667              6.18                
C              17.894              25.656              8.012               
C              17.801              24.501              9.01                
C              17.587              25.061              10.418              
O              17.761              26.255              10.592              
O              17.253              24.285              11.299              
H              16.686              23.736              6.713               
H              18.396              25.871              6.001               
H              18.537              26.289              8.355               
H              17.003              26                  7.877               
H              17.027              23.966              8.787               
H              18.643              24.025              9.01                
N              20.602              25.212              7.698               
C              22.008              24.759              7.907               
C              22.036              23.254              8.189               
O              21.098              22.537              7.904               
H              20.192              25.999              8.214               
H              22.537              24.957              7.084               
H              22.395              25.254              8.682               
N              23.113              22.77               8.747               
C              23.212              21.312              9.045               
C              22.339              20.964              10.254              
O              22.303              19.833              10.696              
C              24.667              20.957              9.353               
C              25.555              21.383              8.183               
O              25.231              22.374              7.55                
O              26.545              20.713              7.942               
H              23.865              23.433              8.962               
H              22.832              20.833              8.254               
H              24.944              21.45               10.152              
H              24.734              19.987              9.46                
N              21.639              21.922              10.796              
C              20.778              21.633              11.977              
C              19.307              21.654              11.56               
O              18.833              22.603              10.967              
C              21.02               22.691              13.054              
C              22.298              22.389              13.767              
C              23.519              22.352              13.188              
C              22.503              22.08               15.175              
N              24.461              22.04               14.151              
C              23.884              21.863              15.392              
C              21.633              21.968              16.275              
C              24.385              21.546              16.655              
C              22.134              21.649              17.548              
C              23.508              21.438              17.737              
H              21.714              22.852              10.376              
H              20.998              20.709              12.282              
H              21.115              23.564              12.629              
H              20.297              22.652              13.709              
H              23.722              22.519              12.232              
H              25.455              21.952              13.97               
H              20.647              22.116              16.161              
H              25.379              21.395              16.783              
H              21.506              21.575              18.306              
H              23.855              21.214              18.632              
N              18.579              20.614              11.867              
C              17.138              20.576              11.49               
C              16.28               20.705              12.75               
O              16.77               20.618              13.858              
C              16.821              19.247              10.801              
C              17.844              18.967              9.748               
C              18.669              19.887              9.199               
C              18.164              17.697              9.108               
N              19.475              19.264              8.263               
C              19.201              17.913              8.171               
C              17.659              16.392              9.25                
C              19.719              16.872              7.4                 
C              18.177              15.341              8.476               
C              19.205              15.581              7.553               
H              19.043              19.85               12.367              
H              16.963              21.372              10.916              
H              16.867              18.527              11.46               
H              15.951              19.315              10.361              
H              18.703              20.853              9.42                
H              20.181              19.738              7.711               
H              16.924              16.2                9.907               
H              20.461              17.054              6.735               
H              17.807              14.433              8.591               
H              19.567              14.841              7.012               
N              15.002              20.907              12.589              
C              14.112              21.036              13.777              
C              13.153              22.21               13.575              
C              12.809              22.343              12.091              
C              11.746              23.427              11.908              
O              10.585              23.138              12.149              
O              12.109              24.529              11.53               
H              14.656              20.97               11.626              
H              14.669              21.199              14.586              
H              12.335              22.014              14.049              
H              13.606              23.018              13.845              
H              13.603              22.628              11.617              
H              12.429              21.506              11.787              
H              13.5361             20.1082             13.8998             
H              18.4446             6.11307             20.7045             
