180
4.xyz
C              32.645              18.935              -0.796              
C              33.314              19.879              0.205               
O              32.633              20.496              1.028               
C              31.879              19.74               -1.847              
C              31.957              19.117              -3.223              
O              32.721              18.14               -3.396              
O              31.266              19.609              -4.145              
H              33.365              18.366              -1.189              
H              30.927              19.782              -1.567              
H              32.273              20.65               -1.883              
N              34.643              19.955              0.152               
C              35.405              20.779              1.088               
C              35.32               20.36               2.571               
O              35.428              21.205              3.46                
C              35.061              22.26               0.935               
C              35.497              22.818              -0.402              
H              35.082              19.388              -0.599              
H              36.39               20.703              0.823               
H              34.074              22.364              1.018               
H              35.522              22.766              1.658               
O              34.664              23.078              -1.275              
N              36.8                22.981              -0.584              
H              37.44               22.731              0.147               
H              37.147              23.35               -1.444              
N              35.125              19.061              2.828               
C              35.109              18.562              4.196               
C              33.831              18.039              4.817               
O              32.876              18.773              5.025               
H              34.992              18.468              1.994               
H              35.846              17.816              4.278               
H              35.496              19.315              4.821               
N              33.862              16.789              5.246               
C              32.687              16.21               5.861               
C              32.421              14.821              5.363               
O              32.862              14.459              4.275               
H              34.752              16.292              5.109               
H              32.81               16.193              6.868               
H              31.884              16.8                5.67                
N              31.628              14.079              6.132               
C              31.28               12.7                5.838               
C              29.832              12.382              6.207               
O              29.302              12.918              7.17                
C              32.172              11.771              6.662               
C              33.644              12.024              6.488               
C              34.312              11.569              5.348               
C              34.358              12.722              7.458               
C              35.671              11.807              5.179               
C              35.722              12.968              7.304               
C              36.379              12.509              6.161               
H              31.271              14.587              6.984               
H              31.355              12.581              4.837               
H              31.95               11.905              7.617               
H              31.986              10.842              6.378               
H              33.811              11.071              4.649               
H              33.888              13.052              8.276               
H              36.14               11.475              4.357               
H              36.225              13.472              8.016               
H              37.354              12.679              6.039               
N              29.2                11.522              5.416               
C              27.826              11.078              5.653               
C              27.538              9.749               4.944               
O              28.201              9.361               3.989               
C              26.787              12.158              5.231               
C              26.644              12.38               3.778               
C              25.844              11.553              2.987               
C              27.43               13.357              3.138               
C              25.835              11.671              1.607               
C              27.422              13.46               1.718               
C              26.63               12.619              0.988               
O              26.632              12.732              -0.389              
H              29.77               11.186              4.603               
H              27.706              10.934              6.643               
H              25.901              11.875              5.615               
H              27.065              13.018              5.674               
H              25.267              10.862              3.427               
H              27.986              13.973              3.664               
H              25.25               11.069              1.055               
H              27.997              14.146              1.283               
H              27.349              13.37               -0.662              
N              26.638              8.973               5.516               
C              26.238              7.721               4.885               
C              24.882              7.999               4.224               
O              24.595              7.524               3.14                
C              26.22               6.53                5.897               
C              27.673              6.232               6.31                
C              25.569              5.28                5.256               
C              27.839              5.307               7.454               
H              26.256              9.312               6.411               
H              26.877              7.558               4.151               
H              25.727              6.824               6.693               
H              28.148              5.861               5.499               
H              28.11               7.117               6.526               
H              25.576              4.539               5.919               
H              24.634              5.501               5                   
H              26.093              5.023               4.451               
H              27.426              4.416               7.243               
H              28.814              5.171               7.652               
H              27.393              5.683               8.272               
N              24.087              8.827               4.878               
C              22.793              9.231               4.368               
C              22.758              10.755              4.405               
O              23.104              11.369              5.415               
C              21.666              8.668               5.256               
O              20.406              9.23                4.922               
H              24.472              9.164               5.792               
H              22.723              8.948               3.419               
H              21.626              7.681               5.129               
H              21.876              8.882               6.206               
H              20.145              8.938               4.003               
N              22.312              11.38               3.308               
C              22.203              12.83               3.165               
C              21.48               13.588              4.299               
O              21.718              14.784              4.469               
C              21.474              12.972              1.828               
C              22.02               11.87               1.048               
C              21.957              10.725              2.035               
H              23.135              13.246              3.013               
H              20.486              12.885              1.962               
H              21.676              13.861              1.417               
H              21.462              11.668              0.249               
H              22.962              12.039              0.776               
H              21.041              10.338              2.082               
H              22.618              10.014              1.808               
N              20.652              12.924              5.106               
C              19.956              13.646              6.171               
C              20.712              13.914              7.465               
O              20.137              14.392              8.447               
C              18.574              13.048              6.466               
C              18.537              11.586              6.793               
C              17.156              11.269              7.343               
N              16.691              9.93                6.995               
C              16.823              8.871               7.78                
N              17.423              8.984               8.967               
N              16.298              7.71                7.402               
H              20.554              11.924              4.924               
H              19.643              14.557              5.787               
H              18.182              13.559              7.241               
H              17.995              13.209              5.658               
H              18.672              11.05               5.979               
H              19.199              11.376              7.49                
H              17.193              11.356              8.34                
H              16.515              11.946              6.976               
H              16.243              9.805               6.103               
H              17.76               9.864               9.286               
H              17.533              8.169               9.544               
H              15.792              7.645               6.541               
H              16.408              6.9                 7.978               
N              21.995              13.589              7.482               
C              22.826              13.835              8.643               
C              24.276              13.656              8.222               
O              24.711              12.562              7.832               
C              22.476              12.926              9.858               
C              23.224              13.414              11.106              
C              22.776              11.482              9.572               
C              22.891              12.662              12.356              
H              22.346              13.15               6.606               
H              22.714              14.796              8.875               
H              21.505              13.011              10.026              
H              24.207              13.342              10.925              
H              23.002              14.384              11.236              
H              22.497              10.913              10.348              
H              22.279              11.183              8.755               
H              23.758              11.359              9.417               
H              23.12               11.694              12.241              
H              23.414              13.034              13.125              
H              21.912              12.747              12.553              
N              24.992              14.771              8.241               
C              26.395              14.829              7.877               
C              26.632              15.962              6.873               
O              26.356              17.22               7.501               
C              25.689              15.792              5.685               
H              24.448              15.62               8.547               
H              26.662              13.959              7.468               
H              27.613              15.957              6.592               
H              24.742              15.755              6.008               
H              25.794              16.566              5.057               
H              25.906              14.942              5.201               
H              27.209              17.645              7.823               
H              31.9819             18.2857             -0.267551           
H              26.9867             14.9719             8.79332             
