186
1.xyz
C              38.621              -10.387             9.8                 
C              37.44               -10.206             10.772              
O              37.473              -10.7               11.898              
C              39.408              -9.086              9.726               
C              40.8                -9.206              9.106               
C              41.871              -9.453              10.138              
H              39.214              -11.115             10.173              
H              38.887              -8.42               9.181               
H              39.519              -8.718              10.657              
H              40.792              -9.967              8.458               
H              41.004              -8.356              8.623               
O              42.662              -8.57               10.448              
N              41.901              -10.654             10.683              
H              42.606              -10.903             11.38               
H              41.204              -11.345             10.4                
N              36.397              -9.502              10.341              
C              35.232              -9.285              11.189              
C              34.448              -10.542             11.544              
O              33.83               -10.592             12.609              
C              34.283              -8.263              10.552              
C              34.772              -6.817              10.56               
C              33.989              -5.974              9.566               
C              34.658              -6.27               11.964              
H              36.485              -9.133              9.378               
H              35.547              -8.851              12.061              
H              34.145              -8.527              9.604               
H              33.426              -8.293              11.051              
H              35.743              -6.8                10.317              
H              33.018              -5.986              9.808               
H              34.325              -5.032              9.588               
H              34.106              -6.347              8.645               
H              35.219              -6.818              12.589              
H              34.976              -5.319              11.985              
H              33.702              -6.303              12.265              
N              34.418              -11.528             10.638              
C              33.696              -12.784             10.881              
C              34.516              -13.794             11.654              
O              34.028              -14.88              11.957              
C              33.177              -13.402             9.605               
C              32.07               -12.641             8.872               
C              31.805              -13.258             7.492               
C              30.828              -12.665             9.731               
H              34.94               -11.33              9.765               
H              32.861              -12.567             11.414              
H              33.942              -13.491             8.965               
H              32.815              -14.309             9.819               
H              32.349              -11.689             8.756               
H              31.523              -14.209             7.606               
H              31.081              -12.744             7.037               
H              32.641              -13.217             6.948               
H              31.016              -12.227             10.613              
H              30.086              -12.171             9.271               
H              30.542              -13.613             9.89                
N              35.744              -13.409             12.003              
C              36.647              -14.255             12.754              
C              36.327              -14.178             14.236              
O              35.719              -13.211             14.701              
C              38.085              -13.815             12.504              
H              35.992              -12.442             11.684              
H              36.534              -15.208             12.45               
H              38.604              -13.872             13.356              
H              38.502              -14.412             11.82               
H              38.092              -12.872             12.172              
N              36.738              -15.21              15.01               
C              36.489              -15.242             16.459              
C              37.093              -14                 17.095              
O              38.061              -13.433             16.562              
C              37.198              -16.537             16.899              
C              38.288              -16.698             15.873              
C              37.553              -16.37              14.602              
H              35.511              -15.306             16.649              
H              37.582              -16.434             17.812              
H              36.57               -17.308             16.874              
H              39.019              -16.055             16.041              
H              38.621              -17.629             15.865              
H              38.179              -16.118             13.872              
H              36.97               -17.123             14.311              
N              36.609              -13.652             18.28               
C              37.066              -12.435             18.923              
C              36.179              -11.264             18.523              
O              36.029              -10.298             19.27               
H              35.913              -14.295             18.681              
H              37.037              -12.546             19.921              
H              38.013              -12.241             18.649              
N              35.585              -11.339             17.337              
C              34.69               -10.287             16.864              
C              33.234              -10.714             17.103              
O              32.958              -11.911             17.243              
C              34.988              -9.966              15.412              
C              36.277              -9.202              15.266              
H              35.807              -12.191             16.789              
H              34.85               -9.48               17.43               
H              35.063              -10.819             14.907              
H              34.245              -9.412              15.05               
O              36.484              -8.197              15.954              
N              37.175              -9.681              14.398              
H              36.956              -10.512             13.883              
H              38.043              -9.218              14.268              
N              32.303              -9.768              17.166              
C              30.923              -10.116             17.477              
C              29.927              -9.262              16.705              
O              30.243              -8.77               15.644              
C              30.722              -9.958              19.008              
O              29.397              -10.336             19.394              
C              30.987              -8.531              19.44               
H              32.631              -8.81               16.983              
H              30.772              -11.085             17.225              
H              31.385              -10.576             19.487              
H              31.972              -8.391              19.576              
H              30.662              -7.893              18.737              
H              30.509              -8.338              20.301              
H              28.873              -9.529              19.686              
N              28.707              -9.134              17.216              
C              27.68               -8.323              16.58               
C              28.122              -6.879              16.787              
O              28.541              -6.51               17.895              
C              26.305              -8.498              17.268              
C              26.111              -9.828              17.927              
H              28.553              -9.66               18.103              
H              27.676              -8.512              15.613              
H              26.202              -7.778              17.964              
H              25.585              -8.376              16.575              
N              25.548              -10.912             17.281              
C              26.454              -10.272             19.163              
C              25.565              -11.96              18.079              
N              26.109              -11.601             19.231              
H              25.185              -10.897             16.348              
H              26.877              -9.734              19.887              
H              25.226              -12.871             17.858              
N              28.038              -6.074              15.729              
C              28.401              -4.671              15.826              
C              29.88               -4.401              15.658              
O              30.332              -3.269              15.844              
H              27.702              -6.526              14.862              
H              27.882              -4.142              15.122              
H              28.095              -4.308              16.731              
N              30.639              -5.462              15.392              
C              32.072              -5.331              15.168              
C              32.188              -4.649              13.823              
O              31.459              -4.981              12.874              
C              32.762              -6.691              15.19               
O              32.889              -7.121              16.536              
H              30.132              -6.365              15.36               
H              32.439              -4.728              15.854              
H              32.21               -7.341              14.693              
H              33.662              -6.602              14.793              
H              32.239              -6.622              17.107              
N              33.075              -3.665              13.754              
C              33.197              -2.902              12.535              
C              34.595              -2.379              12.351              
O              35.471              -2.573              13.202              
C              32.269              -1.687              12.64               
C              32.726              -0.67               13.654              
C              32.469              -0.855              15.01               
C              33.46               0.437               13.255              
C              32.936              0.04                15.958              
C              33.934              1.336               14.196              
C              33.667              1.13                15.559              
H              33.633              -3.509              14.602              
H              33.015              -3.537              11.769              
H              32.245              -1.248              11.757              
H              31.378              -2.01               12.912              
H              31.939              -1.649              15.306              
H              33.648              0.585               12.286              
H              32.732              -0.119              16.932              
H              34.471              2.141               13.905              
H              34.015              1.784               16.231              
N              34.767              -1.666              11.247              
C              36.019              -1.015              10.914              
C              37.114              -2.037              10.529              
C              36.923              -2.934              9.3                 
C              37.419              -2.25               8.029               
C              37.625              -4.248              9.477               
H              33.916              -1.614              10.634              
H              36.328              -0.486              11.697              
H              37.97               -1.518              10.389              
H              37.247              -2.645              11.324              
H              35.949              -3.147              9.203               
H              38.392              -2.042              8.122               
H              37.281              -2.859              7.248               
H              36.908              -1.403              7.887               
H              37.26               -4.729              10.279              
H              37.491              -4.823              8.665               
H              38.609              -4.099              9.609               
H              38.3058             -10.6927            8.81953             
H              35.8201             -0.327758           10.0882             
