269
1.xyz
C              22.482              9.104               26.961              
C              23.566              8.067               26.765              
O              24.033              7.848               25.623              
H              21.608              8.767               26.532              
H              22.724              9.953               26.43               
N              24.134              7.484               27.823              
C              25.142              6.434               27.737              
C              24.442              5.082               27.328              
O              23.355              4.753               27.873              
C              25.909              5.992               29.033              
C              26.743              4.757               28.584              
C              24.906              5.746               30.193              
C              27.971              4.314               29.458              
H              23.783              7.857               28.746              
H              25.739              6.661               26.976              
H              26.524              6.698               29.267              
H              26.119              3.963               28.512              
H              27.09               4.936               27.649              
H              25.412              5.438               30.991              
H              24.435              6.598               30.392              
H              24.256              5.051               29.909              
H              27.635              4.095               30.363              
H              28.378              3.521               29.027              
H              28.609              5.07                29.489              
N              25.297              4.423               26.522              
C              24.879              3.143               25.948              
C              24.803              1.991               26.968              
O              25.805              1.768               27.625              
C              25.774              2.65                24.759              
O              25.342              3.3                 23.528              
C              25.651              1.105               24.574              
H              26.194              4.87                26.364              
H              23.953              3.26                25.543              
H              26.732              2.928               24.94               
H              26.556              0.731               24.391              
H              25.279              0.711               25.41               
H              25.042              0.922               23.807              
H              24.541              3.872               23.712              
N              23.641              1.321               26.935              
C              23.565              0.152               27.857              
C              24.644              -0.886              27.548              
O              25.668              -0.678              26.879              
C              22.142              -0.362              27.778              
S              20.978              0.832               28.449              
H              22.933              1.628               26.327              
H              23.711              0.494               28.792              
H              21.915              -0.52               26.83               
H              22.077              -1.192              28.309              
N              24.656              -1.913              28.372              
C              25.372              -3.2                28.265              
C              24.178              -4.163              28.077              
O              23.004              -3.8                28.435              
C              26.018              -3.679              29.541              
C              27.216              -4.665              29.429              
C              27.548              -5.047              30.873              
H              24.025              -1.73               29.247              
H              25.877              -3.197              27.443              
H              26.353              -2.877              30.072              
H              25.319              -4.14               30.122              
H              26.922              -5.449              28.953              
H              27.963              -4.194              29.044              
O              28.481              -4.454              31.381              
N              26.861              -6.029              31.491              
H              27.053              -6.31               32.406              
H              26.108              -6.48               30.945              
N              24.476              -5.341              27.515              
C              23.358              -6.358              27.385              
C              23.204              -7.071              28.739              
O              24.139              -7.251              29.541              
C              23.572              -7.374              26.257              
C              24.034              -6.654              24.957              
C              23.161              -7.085              23.786              
C              23.49               -6.388              22.478              
N              24.936              -6.612              22.116              
H              25.412              -5.495              27.21               
H              22.526              -5.868              27.175              
H              24.279              -7.998              26.52               
H              22.721              -7.821              26.065              
H              23.945              -5.678              25.094              
H              24.974              -6.905              24.779              
H              23.269              -8.077              23.654              
H              22.2                -6.895              24.015              
H              22.917              -6.758              21.753              
H              23.332              -5.41               22.575              
H              24.979              -7.198              21.311              
H              25.359              -5.731              21.921              
H              25.396              -7.051              22.883              
N              21.975              -7.534              28.948              
C              21.684              -8.245              30.188              
C              22.399              -9.596              30.236              
O              22.733              -10.011             31.364              
C              20.197              -8.316              30.389              
C              19.52               -6.987              30.406              
C              18.902              -6.372              29.332              
C              19.435              -6.071              31.511              
N              18.309              -5.203              29.766              
C              18.646              -4.975              31.087              
C              19.884              -6.078              32.822              
C              18.277              -3.965              31.963              
C              19.503              -5.092              33.72               
C              18.622              -4.083              33.299              
H              21.296              -7.357              28.207              
H              22.036              -7.69               30.951              
H              19.786              -8.843              29.647              
H              20                  -8.755              31.264              
H              18.889              -6.715              28.408              
H              17.725              -4.609              29.213              
H              20.505              -6.816              33.144              
H              17.766              -3.159              31.627              
H              19.848              -5.102              34.639              
H              18.247              -3.454              33.966              
N              22.779              -10.088             29.06               
C              23.426              -11.375             28.839              
C              24.939              -11.263             28.676              
O              25.64               -12.24              28.342              
C              22.691              -12.142             27.712              
O              22.884              -11.651             26.391              
H              22.559              -9.427              28.248              
H              23.246              -11.96              29.649              
H              22.991              -13.11              27.744              
H              21.698              -12.128             27.92               
H              22.137              -11.032             26.156              
N              25.461              -10.066             28.871              
H              24.821              -9.299              29.039              
C              13.633              -4.924              40.97               
C              12.514              -3.994              41.317              
O              12.356              -3.798              42.563              
C              14.924              -4.542              41.654              
C              15.611              -3.313              41.054              
O              15.316              -2.971              39.878              
O              16.522              -2.791              41.775              
H              13.376              -5.858              41.307              
H              14.73               -4.348              42.616              
H              15.559              -5.312              41.592              
N              11.84               -3.427              40.34               
C              10.728              -2.478              40.543              
C              11.031              -1.272              41.423              
O              10.22               -0.821              42.26               
C              9.595               -3.35               41.055              
C              8.588               -2.459              41.762              
H              12.158              -3.705              39.374              
H              10.481              -2.119              39.616              
H              9.153               -3.78               40.294              
H              9.954               -3.993              41.702              
O              8.927               -2.243              42.943              
N              7.503               -2.048              41.09               
H              7.407               -2.362              40.135              
H              6.835               -1.469              41.512              
N              12.218              -0.738              41.238              
C              12.811              0.489               41.846              
C              11.853              1.659               41.572              
O              11.373              1.883               40.415              
C              14.167              0.693               41.223              
C              15.017              1.858               41.651              
O              14.526              2.887               42.182              
O              16.269              1.835               41.535              
H              12.816              -1.312              40.53               
H              12.825              0.343               42.826              
H              14.711              -0.167              41.373              
H              14.036              0.754               40.206              
N              11.497              2.428               42.575              
C              10.615              3.602               42.29               
C              11.206              4.552               41.251              
O              10.492              5.434               40.739              
C              10.422              4.281               43.652              
C              11.196              3.515               44.658              
C              11.984              2.386               43.962              
H              9.698               3.28                42.008              
H              10.737              5.248               43.609              
H              9.434               4.307               43.894              
H              11.846              4.121               45.159              
H              10.579              3.111               45.364              
H              12.963              2.567               44.006              
H              11.783              1.506               44.389              
N              12.52               4.492               41                  
C              13.163              5.323               39.984              
C              12.977              4.9                 38.511              
O              13.492              5.756               37.706              
C              14.614              5.687               40.287              
C              14.647              6.493               41.575              
C              16.007              7.157               41.739              
H              13.038              3.806               41.589              
H              12.783              6.275               40.073              
H              15.13               4.866               40.421              
H              14.964              6.245               39.562              
H              13.955              7.197               41.532              
H              14.497              5.885               42.34               
O              16.139              8.267               41.175              
N              17.024              6.532               42.367              
H              17.904              6.922               42.475              
H              16.816              5.585               42.742              
N              12.224              3.874               38.118              
C              12.017              3.535               36.703              
C              13.198              2.85                36.003              
O              14.318              2.954               36.528              
H              11.793              3.33                38.898              
H              11.193              2.931               36.625              
H              11.78               4.39                36.189              
N              12.971              2.185               34.835              
C              14.03               1.582               34.033              
C              15.411              2.206               34.081              
O              15.653              3.413               34.001              
C              13.53               1.607               32.576              
C              12.063              1.835               32.661              
C              11.702              2.246               34.083              
H              14.093              0.563               34.247              
H              13.985              2.346               32.065              
H              13.738              0.733               32.121              
H              11.773              2.56                32.005              
H              11.553              0.991               32.403              
H              11.324              3.176               34.103              
H              11.026              1.616               34.478              
N              16.4                1.308               34.021              
C              17.823              1.515               34.114              
C              18.396              0.317               33.306              
O              17.621              -0.567              32.94               
C              18.21               1.51                35.61               
C              17.949              0.191               36.298              
C              16.87               -0.104              37.071              
C              18.722              -1.053              36.222              
N              16.986              -1.361              37.626              
C              18.103              -1.968              37.091              
C              19.985              -1.361              35.725              
C              18.567              -3.281              37.263              
C              20.59               -2.573              36.06               
C              19.855              -3.565              36.761              
H              15.994              0.302               33.881              
H              18.06               2.323               33.621              
H              19.179              1.696               35.688              
H              17.675              2.198               36.079              
H              16.087              0.508               37.223              
H              16.374              -1.763              38.295              
H              20.472              -0.72               35.123              
H              18.02               -3.97               37.713              
H              21.527              -2.739              35.811              
H              20.247              -4.458              36.898              
N              19.733              0.272               33.236              
C              20.45               -0.842              32.571              
C              21.88               -0.817              33.08               
O              22.271              0.231               33.693              
C              20.34               -0.58               31.054              
S              21.412              0.821               30.478              
H              20.221              1.071               33.68               
H              20.025              -1.689              32.856              
H              20.629              -1.39               30.572              
H              19.406              -0.343              30.842              
N              22.668              -1.862              32.825              
C              24.107              -1.81               33.109              
C              24.843              -3.135              33.391              
C              24.268              -3.975              34.54               
C              23.155              -4.852              34.39               
C              24.712              -3.734              35.848              
C              22.571              -5.536              35.483              
C              24.18               -4.411              36.949              
C              23.102              -5.311              36.777              
O              22.534              -5.938              37.866              
H              22.193              -2.685              32.423              
H              24.254              -1.276              33.901              
H              24.813              -3.692              32.562              
H              25.794              -2.923              33.616              
H              22.771              -4.989              33.474              
H              25.434              -3.056              35.998              
H              21.818              -6.152              35.349              
H              24.554              -4.265              37.861              
H              21.763              -5.394              38.19               
H              26.4886             -9.964              28.8446             
H              22.2724             9.38861             27.9728             
H              24.4783             -1.22186            32.2322             
H              13.8317             -5.02663            39.9262             
