202
1.xyz
C              108.405             140.464             11.658              
O              107.177             140.389             11.718              
N              109.169             140.644             12.731              
C              108.619             140.872             14.08               
C              109.657             141.611             14.907              
O              110.812             141.763             14.488              
C              108.192             139.569             14.787              
C              109.265             138.508             14.844              
C              110.265             138.544             15.833              
C              109.234             137.432             13.959              
C              111.215             137.509             15.944              
C              110.171             136.385             14.055              
C              111.168             136.418             15.053              
H              110.196             140.611             12.543              
H              107.84              141.483             13.97               
H              107.942             139.801             15.715              
H              107.421             139.198             14.29               
H              110.306             139.307             16.465              
H              108.538             137.396             13.244              
H              111.917             137.555             16.653              
H              110.127             135.615             13.408              
H              111.827             135.686             15.129              
N              109.244             142.067             16.083              
C              110.119             142.804             17.006              
C              110.168             142.077             18.343              
O              109.181             141.427             18.763              
C              109.575             144.222             17.273              
C              109.504             145.148             16.062              
C              110.878             145.514             15.522              
C              110.716             146.412             14.316              
N              111.983             146.614             13.606              
H              108.243             141.86              16.302              
H              111.04              142.836             16.619              
H              108.65              144.13              17.652              
H              110.165             144.652             17.964              
H              108.981             144.691             15.335              
H              109.024             145.99              16.325              
H              111.376             146.001             16.22               
H              111.344             144.69              15.248              
H              110.042             145.997             13.692              
H              110.355             147.302             14.622              
H              112.159             145.84              12.992              
H              111.942             147.458             13.065              
H              112.737             146.685             14.264              
N              111.302             142.212             19.025              
C              111.477             141.607             20.339              
C              110.242             141.908             21.205              
O              109.804             143.049             21.289              
C              112.735             142.16              21.026              
C              112.917             141.637             22.424              
C              114.276             142.039             22.971              
C              114.51              141.545             24.41               
N              113.783             142.371             25.417              
H              112.033             142.773             18.549              
H              111.558             140.616             20.239              
H              113.522             141.897             20.478              
H              112.653             143.151             21.059              
H              112.209             142.016             23.017              
H              112.856             140.641             22.419              
H              114.99              141.65              22.391              
H              114.348             143.035             22.972              
H              114.199             140.593             24.473              
H              115.494             141.578             24.601              
H              113.787             141.898             26.297              
H              114.238             143.256             25.509              
H              112.841             142.508             25.114              
N              109.676             140.877             21.82               
C              108.521             141.094             22.669              
C              107.194             140.701             22.055              
O              106.242             140.441             22.792              
H              110.109             139.963             21.647              
H              108.648             140.578             23.546              
H              108.484             142.083             22.938              
N              107.108             140.684             20.722              
C              105.868             140.296             20.029              
C              105.46              138.867             20.379              
O              106.331             137.98              20.521              
C              106.052             140.291             18.51               
C              106.144             141.675             17.898              
O              105.867             142.69              18.588              
O              106.473             141.714             16.686              
H              107.973             140.962             20.225              
H              105.141             140.904             20.367              
H              106.893             139.794             18.305              
H              105.273             139.814             18.108              
N              104.15              138.635             20.433              
C              103.604             137.302             20.693              
C              103.067             136.801             19.347              
O              102.258             137.483             18.694              
C              102.475             137.322             21.753              
C              102.98              137.96              23.056              
C              101.974             135.872             22.004              
C              104.08              137.2               23.704              
H              103.554             139.474             20.276              
H              104.37              136.725             20.92               
H              101.737             137.884             21.401              
H              103.288             138.887             22.843              
H              102.202             138.023             23.683              
H              101.231             135.903             22.662              
H              101.656             135.493             21.143              
H              102.728             135.333             22.361              
H              104.867             137.136             23.084              
H              104.368             137.662             24.547              
H              103.771             136.273             23.932              
N              103.54              135.628             18.923              
C              103.144             135.067             17.638              
C              102.501             133.727             17.871              
O              102.852             133.023             18.826              
C              104.362             134.895             16.724              
C              105.296             136.103             16.568              
C              106.671             135.692             16.084              
C              104.694             137.083             15.633              
H              104.199             135.164             19.575              
H              102.475             135.68              17.216              
H              104.912             134.142             17.086              
H              104.029             134.659             15.812              
H              105.376             136.563             17.458              
H              106.595             135.239             15.194              
H              107.253             136.502             15.993              
H              107.086             135.06              16.741              
H              103.804             137.404             15.98               
H              105.297             137.882             15.521              
H              104.549             136.666             14.727              
N              101.508             133.396             17.051              
C              100.838             132.111             17.189              
C              101.387             131.194             16.101              
O              101.457             131.567             14.928              
C              99.318              132.235             17.07               
C              98.607              130.915             17.488              
C              97.095              131.017             17.362              
N              96.679              131.352             16.001              
C              96.656              130.488             14.98               
N              97.021              129.221             15.164              
N              96.294              130.905             13.769              
H              101.267             134.101             16.341              
H              101.057             131.721             18.076              
H              99.006              132.94              17.676              
H              99.083              132.41              16.134              
H              98.928              130.182             16.897              
H              98.835              130.72              18.436              
H              96.703              130.138             17.619              
H              96.78               131.727             17.987              
H              96.389              132.299             15.816              
H              97.296              128.894             16.064              
H              97.018              128.586             14.384              
H              96.022              131.86              13.636              
H              96.292              130.271             13                  
N              101.762             129.991             16.493              
C              102.329             129.032             15.556              
C              101.23              128.304             14.783              
O              100.307             127.714             15.361              
C              103.259             127.985             16.287              
C              104.342             128.714             17.096              
C              103.887             127.011             15.275              
C              105.169             129.725             16.269              
H              101.622             129.791             17.502              
H              102.846             129.566             14.88               
H              102.687             127.477             16.913              
H              103.908             129.205             17.845              
H              104.969             128.036             17.47               
H              104.431             126.337             15.767              
H              103.161             126.556             14.768              
H              104.468             127.523             14.648              
H              104.551             130.412             15.902              
H              105.841             130.147             16.868              
H              105.62              129.234             15.532              
N              101.354             128.315             13.473              
C              100.375             127.675             12.627              
C              100.838             126.374             12.006              
O              100.015             125.48              11.77               
C              99.975              128.618             11.492              
C              99.358              129.941             11.896              
C              99.002              130.747             10.632              
N              97.962              130.086             9.822               
C              98.128              129.614             8.586               
N              99.302              129.711             7.959               
N              97.1                129.051             7.967               
H              102.193             128.81              13.113              
H              99.535              127.486             13.182              
H              100.799             128.813             10.946              
H              99.315              128.134             10.905              
H              98.524              129.787             12.399              
H              100.006             130.472             12.417              
H              98.674              131.639             10.923              
H              99.83               130.841             10.09               
H              97.046              129.984             10.242              
H              100.082             130.126             8.424               
H              99.397              129.367             7.026               
H              96.217              128.964             8.43                
H              97.205              128.708             7.031               
N              102.135             126.247             11.731              
C              102.619             125.043             11.066              
C              102.338             125.177             9.56                
C              102.449             123.858             8.812               
O              102.153             122.81              9.403               
O              102.827             123.887             7.628               
H              102.73              127.032             12.015              
H              102.174             124.259             11.506              
H              101.414             125.529             9.453               
H              102.998             125.816             9.182               
H              103.697             124.934             11.2304             
H              108.894             140.363             10.7206             
