290
0.xyz
N              96.194              128.683             20.958              
C              96.786              127.316             20.943              
C              98.27               127.364             21.282              
O              98.635              127.298             22.452              
C              96.568              126.657             19.592              
H              96.928              129.358             20.946              
H              96.309              126.764             21.632              
H              96.436              125.673             19.716              
H              95.757              127.047             19.155              
H              97.366              126.814             19.009              
H              95.616              128.798             20.154              
H              95.648              128.794             21.784              
N              99.129              127.485             20.276              
C              100.561             127.536             20.535              
C              101.117             128.922             20.267              
O              101.142             129.384             19.124              
C              101.305             126.491             19.699              
C              102.807             126.486             19.912              
C              103.518             125.371             19.138              
O              102.856             124.497             18.548              
O              104.765             125.354             19.148              
H              98.709              127.537             19.338              
H              100.741             127.28              21.494              
H              100.962             125.605             19.956              
H              101.137             126.692             18.751              
H              103.172             127.34              19.591              
H              102.99              126.337             20.866              
N              101.604             129.559             21.323              
C              102.172             130.902             21.218              
C              103.637             130.924             21.592              
O              104.082             130.167             22.453              
C              101.45              131.89              22.136              
C              99.984              132.069             21.818              
C              99.57               132.948             20.822              
C              99.019              131.342             22.509              
C              98.221              133.104             20.531              
C              97.67               131.488             22.228              
C              97.278              132.364             21.236              
O              95.935              132.479             20.955              
H              101.549             129.032             22.217              
H              102.083             131.204             20.257              
H              101.529             131.559             23.074              
H              101.898             132.778             22.052              
H              100.248             133.473             20.31               
H              99.306              130.701             23.221              
H              97.928              133.742             19.819              
H              96.989              130.965             22.738              
H              95.408              132.134             21.729              
N              104.38              131.796             20.923              
C              105.795             131.99              21.231              
C              105.977             133.508             21.384              
O              105.125             134.289             20.943              
C              106.743             131.464             20.102              
C              106.562             129.975             19.897              
C              106.508             132.227             18.794              
H              103.881             132.318             20.178              
H              105.987             131.573             22.102              
H              107.676             131.614             20.414              
H              105.591             129.739             19.968              
H              106.898             129.715             18.99               
H              107.075             129.473             20.595              
H              107.347             132.213             18.254              
H              105.77              131.785             18.288              
H              106.257             133.169             19.008              
N              107.059             133.905             22.048              
C              107.363             135.313             22.232              
C              108.714             135.574             21.562              
O              109.635             134.77              21.711              
C              107.457             135.646             23.717              
C              107.916             137.063             24.004              
C              108.207             137.245             25.486              
N              107.01              137.225             26.341              
C              106.656             136.216             27.141              
N              107.378             135.107             27.202              
N              105.633             136.363             27.969              
H              107.652             133.135             22.414              
H              106.673             135.862             21.776              
H              106.555             135.525             24.123              
H              108.107             135.019             24.138              
H              108.75              137.253             23.499              
H              107.201             137.704             23.749              
H              108.824             136.508             25.775              
H              108.676             138.125             25.605              
H              106.41              138.037             26.32               
H              108.214             135.016             26.663              
H              107.086             134.351             27.795              
H              105.141             137.236             28.006              
H              105.349             135.607             28.558              
N              108.811             136.667             20.805              
C              110.047             137.038             20.124              
C              111.12              137.462             21.124              
O              110.854             138.288             21.998              
C              109.792             138.186             19.148              
H              107.934             137.228             20.743              
H              110.386             136.241             19.609              
H              110.355             138.059             18.333              
H              108.827             138.193             18.89               
H              110.028             139.052             19.586              
N              112.305             136.866             21.011              
C              113.447             137.21              21.876              
C              114.304             138.318             21.257              
O              115.058             139.003             21.954              
C              114.323             135.975             22.092              
C              113.669             134.853             22.88               
C              114.508             133.579             22.792              
C              113.505             135.315             24.322              
H              112.36              136.141             20.266              
H              113.089             137.54              22.756              
H              114.565             135.615             21.199              
H              115.133             136.261             22.588              
H              112.76              134.672             22.506              
H              115.417             133.754             23.168              
H              114.064             132.853             23.315              
H              114.589             133.301             21.836              
H              112.929             136.133             24.347              
H              113.075             134.588             24.859              
H              114.403             135.528             24.709              
N              114.168             138.484             19.938              
C              114.925             139.453             19.14               
C              114.097             139.96              17.968              
O              113.078             139.364             17.609              
C              116.164             138.764             18.551              
C              117.191             138.401             19.568              
C              118.195             139.31              19.914              
C              117.156             137.167             20.194              
C              119.155             138.982             20.877              
C              118.114             136.827             21.164              
C              119.11              137.736             21.503              
H              113.449             137.841             19.507              
H              115.104             140.243             19.736              
H              115.859             137.936             18.104              
H              116.572             139.391             17.903              
H              118.231             140.2               19.475              
H              116.446             136.505             19.961              
H              119.87              139.645             21.11               
H              118.07              135.921             21.606              
H              119.793             137.503             22.192              
N              114.521             141.075             17.38               
C              113.821             141.601             16.213              
C              114.227             140.671             15.073              
O              115.322             140.086             15.093              
C              114.313             143.013             15.825              
C              114.006             144.095             16.858              
O              113.179             143.899             17.782              
O              114.618             145.18              16.701              
H              115.349             141.513             17.803              
H              112.857             141.471             16.362              
H              115.302             142.965             15.698              
H              113.875             143.261             14.964              
N              113.377             140.577             14.06               
C              113.681             139.779             12.888              
C              113.044             140.442             11.677              
O              111.875             140.831             11.736              
C              113.131             138.355             13.055              
C              113.19              137.521             11.804              
C              114.416             137.08              11.287              
C              112.002             137.155             11.158              
C              114.446             136.275             10.136              
C              112.022             136.36              10.025              
C              113.235             135.914             9.511               
H              112.495             141.114             14.179              
H              114.669             139.817             12.751              
H              113.671             137.904             13.75               
H              112.183             138.429             13.33               
H              115.262             137.331             11.728              
H              111.129             137.476             11.527              
H              115.319             135.965             9.767               
H              111.153             136.106             9.572               
H              113.261             135.336             8.698               
N              113.804             140.599             10.595              
C              113.24              141.171             9.373               
C              113.196             140.139             8.255               
O              112.247             140.089             7.501               
C              114.006             142.407             8.926               
C              113.721             143.591             9.81                
H              114.781             140.295             10.691              
H              112.288             141.426             9.578               
H              114.979             142.206             8.963               
H              113.733             142.628             7.995               
O              112.56              143.994             9.984               
N              114.755             144.124             10.42               
H              115.677             143.752             10.286              
H              114.632             144.915             11.03               
N              114.246             139.337             8.137               
C              114.294             138.304             7.105               
C              114.698             138.786             5.718               
O              114.475             139.953             5.372               
H              115.006             139.501             8.819               
H              114.942             137.567             7.403               
H              113.376             137.852             7.045               
N              115.386             137.926             4.962               
C              115.784             138.295             3.617               
C              114.879             137.712             2.538               
O              114.98              138.095             1.369               
C              117.252             137.956             3.344               
C              118.201             138.865             4.108               
H              115.595             137.022             5.405               
H              115.71              139.306             3.547               
H              117.416             137.018             3.626               
H              117.424             138.064             2.371               
O              118.418             140.03              3.731               
N              118.736             138.361             5.214               
H              118.511             137.428             5.498               
H              119.364             138.911             5.764               
N              113.99              136.802             2.926               
C              113.066             136.185             1.974               
C              111.661             136.773             2.108               
O              111.19              137.068             3.218               
C              113.006             134.664             2.174               
C              114.353             133.992             1.956               
O              115.195             134.572             1.243               
O              114.576             132.892             2.505               
H              114.008             136.573             3.936               
H              113.394             136.414             1.05                
H              112.709             134.49              3.104               
H              112.356             134.295             1.523               
N              110.958             136.87              0.987               
C              109.62              137.428             0.991               
C              108.595             136.617             1.814               
O              107.593             137.16              2.291               
C              109.152             137.618             -0.446              
C              109.974             138.646             -1.248              
C              109.651             140.111             -0.902              
O              108.678             140.393             -0.158              
O              110.383             140.993             -1.392              
H              111.437             136.522             0.137               
H              109.644             138.381             1.354               
H              109.235             136.756             -0.913              
H              108.224             137.943             -0.428              
H              110.925             138.501             -1.045              
H              109.774             138.521             -2.202              
N              108.87              135.336             2.026               
C              107.98              134.476             2.814               
C              108.102             134.705             4.326               
O              107.294             134.167             5.096               
C              108.272             132.991             2.534               
C              109.601             132.509             3.092               
C              109.774             130.979             3.019               
O              108.873             130.272             2.525               
O              110.822             130.474             3.466               
H              109.752             134.998             1.596               
H              107.019             134.636             2.53                
H              107.559             132.465             2.959               
H              108.294             132.873             1.559               
H              110.327             132.905             2.561               
H              109.654             132.757             4.041               
N              109.137             135.44              4.738               
C              109.413             135.688             6.148               
C              108.46              136.665             6.805               
O              108.043             137.635             6.186               
C              110.849             136.219             6.345               
C              111.922             135.244             5.881               
O              111.621             134.059             5.688               
O              113.086             135.675             5.734               
H              109.728             135.819             3.965               
H              109.308             134.796             6.632               
H              110.934             137.061             5.823               
H              110.975             136.398             7.314               
N              108.13              136.403             8.063               
C              107.258             137.299             8.832               
C              108.144             138.159             9.739               
O              108.737             137.637             10.689              
C              106.291             136.492             9.708               
C              105.376             137.334             10.621              
C              104.394             138.202             9.781               
C              104.61              136.379             11.562              
H              108.531             135.53              8.451               
H              106.779             137.897             8.2                 
H              105.703             135.965             9.111               
H              106.827             135.902             10.294              
H              105.938             137.938             11.18               
H              103.833             137.598             9.225               
H              103.824             138.728             10.404              
H              104.926             138.811             9.201               
H              105.268             135.868             12.11               
H              104.016             136.917             12.155              
H              104.064             135.751             11.012              
N              108.264             139.471             9.453               
C              109.105             140.32              10.315              
C              109.093             141.679             9.585               
C              108.77              141.314             8.122               
C              107.73              140.238             8.31                
H              110.012             139.929             10.42               
H              108.386             142.275             9.949               
H              109.981             142.122             9.636               
H              108.402             142.1               7.66                
H              109.578             140.967             7.683               
H              106.84              140.626             8.534               
H              107.655             139.657             7.502               
H              108.602             140.423             11.2794             
