288
3.xyz
C              100.777             134.631             12.599              
C              100.973             135.724             13.65               
O              101.119             135.426             14.85               
C              99.324              134.165             12.592              
C              98.359              135.322             12.628              
C              96.923              134.89              12.663              
O              96.365              134.725             11.568              
O              96.366              134.733             13.754              
H              100.998             134.997             11.695              
H              99.174              133.671             11.762              
H              99.18               133.625             13.394              
H              98.536              135.848             13.445              
H              98.491              135.863             11.813              
N              100.975             136.985             13.233              
C              101.179             138.035             14.211              
C              99.872              138.627             14.735              
O              98.783              138.198             14.327              
C              102.153             139.1               13.679              
C              101.584             139.938             12.539              
O              100.356             139.993             12.346              
O              102.406             140.58              11.859              
H              100.83              137.131             12.236              
H              101.652             137.62              15.008              
H              102.385             139.707             14.435              
H              102.969             138.632             13.354              
N              99.966              139.59              15.652              
C              98.763              140.188             16.235              
C              97.889              140.878             15.203              
O              96.713              141.152             15.473              
C              99.12               141.153             17.375              
O              99.69               142.347             16.856              
H              100.925             139.867             15.905              
H              98.221              139.442             16.656              
H              98.292              141.379             17.873              
H              99.779              140.712             17.971              
H              100.162             142.144             16                  
N              98.45               141.197             14.037              
C              97.655              141.832             12.995              
C              97.04               140.823             12.017              
O              96.31               141.211             11.089              
C              98.475              142.872             12.231              
C              98.873              144.062             13.043              
C              99.503              145.119             12.184              
O              100.481             144.836             11.46               
O              98.99               146.237             12.211              
H              99.446              140.965             13.946              
H              96.911              142.377             13.418              
H              99.297              142.423             11.916              
H              97.922              143.184             11.474              
H              98.069              144.449             13.451              
H              99.538              143.784             13.709              
N              97.303              139.537             12.251              
C              96.79               138.486             11.381              
C              97.692              138.14              10.211              
O              97.327              137.304             9.384               
H              97.89               139.357             13.086              
H              96.627              137.644             11.938              
H              95.873              138.767             11.025              
N              98.848              138.802             10.109              
C              99.791              138.539             9.018               
C              100.527             137.234             9.275               
O              100.892             136.932             10.414              
C              100.805             139.667             8.882               
C              100.194             141.021             8.559               
C              100.964             142.124             9.24                
C              102.472             141.964             9.031               
N              103.236             142.684             10.08               
H              99.016              139.503             10.853              
H              99.278              138.46              8.16                
H              101.304             139.747             9.745               
H              101.444             139.429             8.15                
H              100.222             141.161             7.572               
H              99.249              141.034             8.877               
H              100.69              143.002             8.859               
H              100.783             142.099             10.218              
H              102.697             140.99              9.063               
H              102.711             142.332             8.132               
H              103.266             143.66              9.861               
H              102.79              142.555             10.966              
H              104.168             142.323             10.121              
N              100.774             136.489             8.203               
C              101.438             135.198             8.299               
C              102.78              135.163             7.589               
O              102.989             135.852             6.583               
C              100.571             134.123             7.661               
C              99.222              133.925             8.268               
C              98.405              133.06              7.32                
N              97.075              132.775             7.845               
C              96.169              131.996             7.249               
N              96.437              131.408             6.079               
N              95.005              131.778             7.837               
H              100.455             136.904             7.303               
H              101.587             134.982             9.282               
H              100.452             134.361             6.689               
H              101.074             133.251             7.712               
H              99.297              133.448             9.126               
H              98.758              134.789             8.366               
H              98.321              133.546             6.453               
H              98.898              132.203             7.184               
H              96.816              133.197             8.726               
H              97.327              131.53              5.648               
H              95.738              130.843             5.638               
H              94.813              132.181             8.735               
H              94.312              131.211             7.39                
N              103.653             134.286             8.065               
C              104.942             134.131             7.435               
C              105.793             133.153             8.182               
O              105.386             132.678             9.233               
H              103.338             133.751             8.889               
H              104.815             133.814             6.482               
H              105.408             135.029             7.397               
N              106.989             132.894             7.663               
C              107.925             131.962             8.283               
C              108.751             132.692             9.311               
O              109.114             133.857             9.108               
C              108.883             131.405             7.23                
C              108.179             130.715             6.12                
S              107.437             129.252             6.85                
C              108.91              128.191             6.848               
H              107.199             133.411             6.781               
H              107.393             131.252             8.749               
H              109.427             132.168             6.859               
H              109.511             130.759             7.681               
H              107.474             131.309             5.735               
H              108.827             130.458             5.405               
H              108.926             127.66              6.004               
H              109.723             128.766             6.904               
H              108.87              127.579             7.635               
N              109.069             132.004             10.402              
C              109.885             132.589             11.459              
C              110.974             131.613             11.934              
O              110.771             130.382             11.977              
C              109.03              133.047             12.688              
C              108.313             131.841             13.335              
C              108.062             134.138             12.247              
C              107.938             132.022             14.815              
H              108.695             131.037             10.435              
H              110.367             133.37              11.049              
H              109.651             133.431             13.358              
H              107.478             131.656             12.816              
H              108.914             131.044             13.259              
H              107.554             134.472             13.039              
H              108.574             134.891             11.837              
H              107.424             133.765             11.576              
H              107.326             132.802             14.896              
H              107.485             131.195             15.133              
H              108.77              132.181             15.338              
N              112.158             132.149             12.242              
C              113.277             131.331             12.715              
C              113.097             130.979             14.211              
O              113.008             131.855             15.086              
C              114.494             132.236             12.46               
C              113.946             133.61              12.724              
C              112.532             133.574             12.123              
H              113.371             130.495             12.171              
H              115.231             132.02              13.091              
H              114.805             132.151             11.52               
H              113.9               133.793             13.702              
H              114.496             134.305             12.27               
H              111.912             134.149             12.646              
H              112.547             133.86              11.17               
N              113.044             129.683             14.487              
C              112.87              129.176             15.836              
C              113.851             129.708             16.909              
O              113.468             129.946             18.068              
C              112.819             127.637             15.801              
C              112.875             127.059             17.224              
C              111.547             127.194             15.052              
H              113.138             129.061             13.65               
H              111.922             129.421             16.151              
H              113.633             127.314             15.33               
H              112.337             127.638             17.833              
H              112.5               126.135             17.216              
H              113.824             127.036             17.53               
H              111.677             126.262             14.724              
H              110.775             127.233             15.681              
H              111.396             127.811             14.284              
N              115.134             129.871             16.56               
C              116.086             130.384             17.561              
C              115.754             131.801             18.103              
O              116.211             132.182             19.173              
C              117.395             130.391             16.782              
C              117.229             129.163             15.862              
C              115.837             129.408             15.344              
H              116.175             129.73              18.337              
H              117.491             131.208             16.233              
H              118.175             130.261             17.374              
H              117.896             129.197             15.147              
H              117.281             128.345             16.396              
H              115.825             130.114             14.645              
H              115.422             128.572             14.998              
N              114.928             132.554             17.373              
C              114.568             133.92              17.751              
C              113.342             134.014             18.652              
O              112.9               135.122             18.997              
C              114.299             134.749             16.493              
C              115.533             135.232             15.791              
C              116.497             134.326             15.292              
C              115.788             136.607             15.68               
C              117.687             134.803             14.703              
C              116.963             137.091             15.11               
C              117.904             136.188             14.635              
O              119.071             136.683             14.137              
H              114.564             132.086             16.515              
H              115.358             134.326             18.252              
H              113.772             134.184             15.857              
H              113.754             135.545             16.758              
H              116.338             133.352             15.356              
H              115.105             137.255             16.019              
H              118.356             134.169             14.343              
H              117.125             138.07              15.045              
H              118.94              136.954             13.183              
N              112.754             132.867             18.975              
C              111.561             132.84              19.816              
C              111.656             131.869             20.992              
O              112.465             130.936             20.979              
C              110.284             132.436             18.998              
C              110.123             133.33              17.768              
C              110.343             130.968             18.602              
H              113.203             132.018             18.589              
H              111.425             133.774             20.197              
H              109.5               132.597             19.584              
H              110.593             132.912             16.992              
H              109.152             133.431             17.557              
H              110.52              134.227             17.957              
H              111.296             130.705             18.451              
H              109.953             130.412             19.336              
H              109.819             130.831             17.762              
N              110.821             132.12              22                  
C              110.719             131.266             23.162              
C              109.223             130.899             23.296              
O              108.331             131.636             22.853              
C              111.206             131.986             24.419              
C              110.32              133.139             24.871              
C              110.75              133.754             26.21               
O              111.681             133.228             26.855              
O              110.16              134.778             26.621              
H              110.249             132.989             21.872              
H              111.242             130.439             23.036              
H              111.232             131.327             25.152              
H              112.1               132.355             24.228              
H              110.368             133.853             24.196              
H              109.403             132.802             24.989              
N              108.949             129.731             23.854              
C              107.575             129.327             24.056              
C              106.889             130.329             24.993              
O              107.519             130.924             25.881              
C              107.528             127.951             24.718              
C              108.186             126.873             23.936              
C              107.977             125.527             24.592              
C              108.723             124.47              23.803              
N              108.402             123.07              24.182              
H              109.767             129.163             24.119              
H              107.092             129.334             23.18               
H              107.976             128.029             25.612              
H              106.562             127.715             24.858              
H              107.801             126.84              23.011              
H              109.171             127.048             23.874              
H              108.34              125.553             25.509              
H              107.015             125.308             24.585              
H              108.52              124.597             22.815              
H              109.722             124.621             23.919              
H              108.085             123.046             25.13               
H              107.684             122.719             23.581              
H              109.221             122.504             24.089              
N              105.593             130.511             24.796              
C              104.825             131.404             25.639              
C              103.76              130.55              26.353              
C              104.182             132.504             24.78               
C              103.225             133.413             25.516              
C              101.891             133.051             25.693              
C              103.653             134.642             26.031              
C              101.008             133.889             26.36               
C              102.776             135.492             26.703              
C              101.456             135.107             26.863              
O              100.58              135.934             27.531              
O              103.566             130.682             27.586              
O              103.003             129.696             25.914              
H              105.189             129.972             24.007              
H              105.42              131.787             26.334              
H              104.917             133.066             24.396              
H              103.682             132.061             24.034              
H              101.564             132.177             25.335              
H              104.606             134.914             25.915              
H              100.051             133.62              26.482              
H              103.097             136.363             27.061              
H              100.404             135.559             28.439              
H              101.41              133.815             12.8246             
