257
1.xyz
C              14.215              -3.5                -6.897              
O              15.177              -4.182              -6.55               
N              13.04               -4.039              -7.226              
C              12.772              -5.467              -7.322              
C              12.212              -5.736              -8.722              
O              11.276              -5.046              -9.124              
C              11.727              -5.863              -6.275              
C              12.242              -5.753              -4.836              
C              11.098              -5.911              -3.824              
N              10.576              -7.284              -3.765              
C              9.498               -7.75               -4.412              
N              8.844               -7.014              -5.314              
N              9.053               -8.98               -4.151              
H              12.29               -3.311              -7.419              
H              13.623              -5.968              -7.22               
H              10.947              -5.259              -6.366              
H              11.466              -6.805              -6.433              
H              12.904              -6.472              -4.666              
H              12.651              -4.859              -4.699              
H              11.447              -5.653              -2.926              
H              10.365              -5.292              -4.095              
H              11.079              -7.945              -3.177              
H              9.176               -6.096              -5.531              
H              8.036               -7.38               -5.765              
H              9.54                -9.551              -3.489              
H              8.242               -9.327              -4.614              
N              12.73               -6.726              -9.471              
C              12.118              -7.16               -10.719             
C              10.628              -7.456              -10.522             
O              9.79                -6.997              -11.298             
C              12.903              -8.399              -11.164             
C              14.266              -8.207              -10.501             
C              13.92               -7.51               -9.185              
H              12.248              -6.474              -11.444             
H              12.475              -9.233              -10.834             
H              13.002              -8.427              -12.152             
H              14.692              -9.085              -10.334             
H              14.841              -7.632              -11.065             
H              13.745              -8.19               -8.463              
H              14.683              -6.922              -8.887              
N              10.297              -8.175              -9.442              
C              8.936               -8.536              -9.065              
C              8.146               -7.342              -8.505              
O              7.408               -7.491              -7.53               
C              8.972               -9.695              -8.048              
C              9.316               -11.044             -8.691              
C              10.741              -11.11              -9.234              
O              11.634              -10.54              -8.568              
O              10.912              -11.716             -10.314             
H              11.139              -8.468              -8.867              
H              8.446               -8.907              -9.869              
H              9.669               -9.494              -7.393              
H              8.082               -9.773              -7.655              
H              9.228               -11.741             -8.003              
H              8.704               -11.188             -9.447              
N              8.25                -6.168              -9.132              
C              7.452               -5.007              -8.773              
C              7.485               -4.745              -7.274              
O              8.551               -4.676              -6.665              
H              8.957               -6.16               -9.904              
H              7.802               -4.194              -9.26               
H              6.495               -5.152              -9.064              
N              6.302               -4.651              -6.671              
C              6.173               -4.64               -5.228              
C              4.906               -5.413              -4.896              
O              3.804               -4.866              -4.938              
C              6.188               -3.206              -4.691              
C              6.255               -3.142              -3.158              
C              7.598               -3.646              -2.623              
C              6.087               -1.687              -2.72               
H              5.491               -4.587              -7.323              
H              6.946               -5.116              -4.829              
H              6.989               -2.757              -5.04               
H              5.357               -2.766              -4.969              
H              5.517               -3.705              -2.777              
H              8.334               -3.081              -2.993              
H              7.599               -3.587              -1.626              
H              7.73                -4.595              -2.904              
H              5.202               -1.346              -3.037              
H              6.129               -1.634              -1.723              
H              6.82                -1.135              -3.116              
N              5.055               -6.715              -4.629              
C              3.916               -7.569              -4.339              
C              3.179               -7.001              -3.125              
O              3.838               -6.518              -2.207              
C              4.314               -9.018              -4.007              
C              5.429               -9.621              -4.86               
H              6.038               -7.049              -4.648              
H              3.289               -7.508              -5.112              
H              4.605               -9.049              -3.041              
H              3.494               -9.598              -4.106              
O              6.474               -9.01               -5.063              
N              5.245               -10.851             -5.33               
H              4.386               -11.329             -5.113              
H              5.94                -11.29              -5.885              
N              1.85                -7.119              -3.068              
C              1.021               -6.707              -1.935              
C              1.677               -7.098              -0.602              
O              1.76                -6.292              0.32                
C              -0.38               -7.325              -2.101              
C              -1.556              -6.645              -1.408              
C              -1.494              -6.236              -0.06               
C              -2.768              -6.489              -2.113              
C              -2.591              -5.592              0.537               
C              -3.868              -5.856              -1.511              
C              -3.78               -5.403              -0.186              
H              1.432               -7.55               -3.941              
H              0.979               -5.703              -1.95               
H              -0.587              -7.348              -3.084              
H              -0.337              -8.268              -1.758              
H              -0.677              -6.4                0.468               
H              -2.841              -6.83               -3.043              
H              -2.518              -5.27               1.484               
H              -4.72               -5.731              -2.036              
H              -4.553              -4.95               0.242               
N              2.175               -8.333              -0.486              
C              2.782               -8.775              0.761               
C              4.074               -8                  1.076               
O              4.314               -7.645              2.228               
C              2.924               -10.308             0.782               
C              4.196               -10.868             0.125               
C              5.408               -10.837             1.058               
H              2.092               -8.919              -1.33               
H              2.132               -8.592              1.511               
H              2.912               -10.618             1.739               
H              2.132               -10.71              0.307               
H              4.025               -11.814             -0.14               
H              4.403               -10.32              -0.682              
O              5.282               -11.043             2.26                
N              6.594               -10.57              0.525               
H              7.424               -10.522             1.087               
H              6.646               -10.412             -0.487              
N              4.906               -7.713              0.069               
C              6.122               -6.926              0.264               
C              5.721               -5.512              0.674               
O              6.215               -4.971              1.659               
C              6.973               -6.884              -1.016              
C              7.615               -8.229              -1.333              
O              6.877               -9.115              -1.818              
O              8.826               -8.366              -1.06               
H              4.614               -8.095              -0.853              
H              6.614               -7.326              1.033               
H              6.381               -6.629              -1.768              
H              7.689               -6.212              -0.885              
N              4.794               -4.938              -0.092              
C              4.183               -3.642              0.133               
C              3.762               -3.514              1.601               
O              4.236               -2.618              2.299               
C              3.024               -3.502              -0.87               
C              2.52                -2.081              -1.125              
C              1.543               -2.135              -2.305              
C              1.775               -1.539              0.09                
H              4.525               -5.547              -0.931              
H              4.855               -2.925              -0.062              
H              3.334               -3.871              -1.742              
H              2.259               -4.034              -0.523              
H              3.283               -1.5                -1.359              
H              0.782               -2.738              -2.074              
H              1.2                 -1.216              -2.49               
H              2.019               -2.486              -3.11               
H              2.39                -1.525              0.879               
H              1.456               -0.611              -0.102              
H              0.991               -2.127              0.289               
N              2.902               -4.415              2.088               
C              2.418               -4.344              3.46                
C              3.558               -4.572              4.459               
O              3.619               -3.895              5.481               
C              1.2                 -5.263              3.672               
C              1.54                -6.713              4.027               
C              0.266               -7.562              4.087               
C              0.604               -9.003              4.483               
N              -0.607              -9.841              4.536               
H              2.619               -5.151              1.414               
H              2.028               -3.43               3.625               
H              0.65                -4.881              4.414               
H              0.664               -5.266              2.827               
H              2.141               -7.086              3.329               
H              1.982               -6.735              4.916               
H              -0.339              -7.182              4.769               
H              -0.155              -7.572              3.194               
H              1.244               -9.374              3.808               
H              1.046               -8.989              5.382               
H              -1.298              -9.402              5.114               
H              -0.977              -9.96               3.613               
H              -0.381              -10.739             4.918               
N              4.477               -5.506              4.175               
C              5.634               -5.719              5.043               
C              6.457               -4.441              5.191               
O              6.922               -4.147              6.288               
C              6.524               -6.874              4.564               
C              6.106               -8.205              5.178               
H              4.297               -6.045              3.312               
H              5.281               -5.949              5.957               
H              6.446               -6.943              3.578               
H              7.459               -6.682              4.832               
O              6.552               -8.557              6.265               
N              5.256               -8.961              4.494               
H              4.927               -8.632              3.6                 
H              4.949               -9.833              4.852               
N              6.647               -3.68               4.11                
C              7.302               -2.385              4.21                
C              6.407               -1.436              5.011               
O              6.764               -0.978              6.096               
C              7.609               -1.833              2.809               
C              8.698               -2.653              2.103               
C              10.065              -2.507              2.763               
H              6.297               -4.084              3.226               
H              8.153               -2.502              4.72                
H              6.788               -1.876              2.259               
H              7.933               -0.901              2.894               
H              8.435               -3.615              2.126               
H              8.765               -2.342              1.158               
O              10.622              -3.47               3.277               
N              10.623              -1.3                2.757               
H              11.517              -1.134              3.188               
H              10.12               -0.535              2.3                 
N              5.221               -1.139              4.482               
C              4.336               -0.135              5.046               
C              3.427               -0.79               6.086               
O              2.208               -0.791              5.941               
C              3.551               0.555               3.92                
C              4.447               1.134               2.81                
C              3.564               1.775               1.736               
C              5.432               2.184               3.339               
H              4.985               -1.693              3.625               
H              4.886               0.563               5.505               
H              2.962               -0.115              3.504               
H              3.047               1.302               4.312               
H              4.976               0.399               2.407               
H              3.022               2.506               2.148               
H              4.143               2.151               1.015               
H              2.956               1.082               1.352               
H              6.022               1.764               4.026               
H              5.986               2.526               2.582               
H              4.92                2.937               3.749               
N              4.031               -1.308              7.161               
C              3.336               -2.05               8.215               
C              4.306               -2.386              9.35                
C              5.461               -3.265              8.854               
C              6.071               -4.013              10.043              
C              7.337               -4.789              9.658               
N              7.081               -5.78               8.598               
H              5.069               -1.133              7.185               
H              3.029               -2.94               7.837               
H              4.686               -1.546              9.698               
H              3.816               -2.884              10.045              
H              5.11                -3.924              8.206               
H              6.153               -2.69               8.446               
H              6.311               -3.352              10.749              
H              5.401               -4.661              10.393              
H              8.028               -4.129              9.346               
H              7.685               -5.253              10.479              
H              6.117               -6.052              8.614               
H              7.296               -5.383              7.704               
H              7.653               -6.589              8.745               
H              14.2911             -2.43417            -6.96331            
H              2.4563              -1.51787            8.60925             
