187
3.xyz
C              -17.576             32.007              2.816               
O              -17.799             32.694              3.817               
N              -18.543             31.69               1.952               
C              -19.894             32.111              2.225               
C              -20.875             30.974              2.49                
O              -22.046             31.239              2.692               
C              -20.399             32.938              1.093               
C              -20.432             32.234              -0.262              
C              -20.954             33.131              -1.372              
O              -21.246             34.302              -1.109              
O              -21.048             32.68               -2.509              
H              -18.245             31.154              1.133               
H              -19.901             32.746              3.03                
H              -21.331             33.216              1.292               
H              -19.811             33.73               0.988               
H              -19.515             31.975              -0.495              
H              -21.036             31.464              -0.193              
N              -20.426             29.731              2.434               
C              -21.207             28.576              2.828               
C              -20.435             27.832              3.927               
O              -19.276             28.181              4.247               
C              -21.462             27.621              1.63                
C              -22.515             28.301              0.781               
C              -20.176             27.274              0.863               
H              -19.438             29.652              2.073               
H              -22.066             28.889              3.222               
H              -21.856             26.802              1.989               
H              -22.08              28.967              0.172               
H              -22.998             27.618              0.231               
H              -23.171             28.774              1.371               
H              -20.141             27.82               0.029               
H              -19.39              27.481              1.441               
H              -20.188             26.303              0.636               
N              -21.045             26.818              4.539               
C              -20.397             26.096              5.61                
C              -19.265             25.228              5.041               
O              -19.276             24.771              3.869               
C              -21.445             25.203              6.44                
C              -22.362             24.361              5.545               
C              -22.292             26.149              7.3                 
C              -23.172             23.244              6.258               
H              -21.995             26.605              4.185               
H              -19.957             26.778              6.196               
H              -20.899             24.592              7.01                
H              -23.016             24.97               5.087               
H              -21.802             23.923              4.835               
H              -22.91              25.611              7.868               
H              -21.69              26.693              7.879               
H              -22.819             26.749              6.705               
H              -23.751             23.669              6.943               
H              -23.722             22.775              5.577               
H              -22.53              22.617              6.682               
N              -18.255             24.993              5.906               
C              -17.056             24.249              5.494               
C              -17.338             22.86               4.927               
O              -16.651             22.461              4.007               
C              -16.085             24.138              6.711               
C              -14.783             23.429              6.372               
C              -13.769             23.332              7.514               
N              -12.635             22.601              6.936               
C              -11.559             22.154              7.607               
N              -11.372             22.335              8.925               
N              -10.634             21.491              6.894               
H              -18.4               25.373              6.853               
H              -16.57              24.796              4.783               
H              -15.877             25.057              7.01                
H              -16.55              23.626              7.417               
H              -14.986             22.486              6.063               
H              -14.331             23.91               5.604               
H              -13.494             24.226              7.753               
H              -14.164             22.813              8.226               
H              -12.662             22.414              5.938               
H              -12.094             22.817              9.433               
H              -10.56              22.004              9.367               
H              -10.75              21.322              5.926               
H              -9.805              21.159              7.363               
N              -18.3               22.077              5.373               
C              -18.575             20.785              4.781               
C              -19.109             20.901              3.343               
O              -18.984             19.929              2.577               
H              -18.839             22.464              6.179               
H              -17.731             20.226              4.768               
H              -19.258             20.289              5.34                
N              -19.706             22.055              2.966               
C              -20.123             22.326              1.575               
C              -18.916             22.642              0.672               
O              -18.701             21.945              -0.342              
C              -21.122             23.503              1.533               
C              -22.563             23.014              1.513               
C              -23.083             22.196              2.501               
C              -23.489             23.284              0.519               
N              -24.324             21.952              2.126               
C              -24.601             22.575              0.958               
C              -23.511             24.02               -0.664              
C              -25.761             22.59               0.219               
C              -24.666             24.028              -1.396              
C              -25.774             23.323              -0.959              
H              -19.845             22.734              3.742               
H              -20.554             21.49               1.22                
H              -21.012             24.046              2.342               
H              -20.979             24.016              0.709               
H              -22.602             21.888              3.29                
H              -25.001             21.374              2.634               
H              -22.708             24.527              -0.967              
H              -26.578             22.083              0.523               
H              -24.706             24.544              -2.247              
H              -26.616             23.34               -1.507              
N              -18.065             23.628              1.017               
C              -16.814             23.918              0.287               
C              -16.026             22.635              -0.01               
O              -15.46              22.399              -1.097              
C              -15.837             24.805              1.101               
C              -16.318             26.162              1.623               
C              -16.262             27.342              0.645               
O              -16.71              27.198              -0.488              
O              -15.786             28.414              1.018               
H              -18.369             24.176              1.854               
H              -17.034             24.384              -0.578              
H              -15.547             24.266              1.896               
H              -15.041             24.976              0.516               
H              -17.269             26.063              1.907               
H              -15.755             26.408              2.409               
N              -15.943             21.785              1.016               
C              -15.231             20.52               0.898               
C              -16.004             19.445              0.178               
O              -15.414             18.659              -0.573              
C              -14.871             20.003              2.284               
C              -14.042             21.022              3.084               
C              -12.589             20.618              3.304               
O              -11.806             20.751              2.364               
O              -12.266             20.142              4.397               
H              -16.419             22.1                1.881               
H              -14.342             20.681              0.419               
H              -15.697             19.852              2.779               
H              -14.324             19.203              2.181               
H              -14.043             21.872              2.583               
H              -14.461             21.124              3.972               
N              -17.323             19.384              0.338               
C              -18.057             18.306              -0.255              
C              -18.429             18.519              -1.7                
O              -18.282             17.631              -2.563              
H              -17.734             20.144              0.896               
H              -17.513             17.438              -0.176              
H              -18.913             18.137              0.287               
N              -18.927             19.699              -2.008              
C              -19.311             19.963              -3.362              
C              -18.048             19.998              -4.259              
O              -18.108             19.608              -5.431              
C              -20.15              21.283              -3.366              
C              -20.502             21.608              -4.815              
C              -21.526             21.106              -2.656              
H              -19.007             20.367              -1.231              
H              -19.886             19.214              -3.696              
H              -19.565             22                  -3.038              
H              -21.369             22.103              -4.843              
H              -19.781             22.174              -5.213              
H              -20.585             20.759              -5.335              
H              -21.359             20.94               -1.69               
H              -22.052             21.94               -2.782              
H              -21.993             20.332              -3.069              
N              -16.853             20.337              -3.758              
C              -15.651             20.298              -4.572              
C              -15.308             18.884              -5.034              
O              -14.616             18.69               -6.031              
C              -14.459             20.816              -3.816              
H              -16.869             20.622              -2.761              
H              -15.792             20.876              -5.393              
H              -13.669             20.217              -3.968              
H              -14.23              21.741              -4.128              
H              -14.661             20.845              -2.834              
N              -15.868             17.874              -4.353              
C              -15.704             16.494              -4.741              
C              -15.861             15.59               -3.532              
C              -14.587             15.705              -2.662              
C              -14.754             14.926              -1.358              
H              -16.427             18.182              -3.525              
H              -14.766             16.386              -5.123              
H              -16.618             15.889              -2.99               
H              -15.939             14.658              -3.822              
H              -13.829             15.324              -3.167              
H              -14.44              16.658              -2.45               
O              -14.737             13.705              -1.34               
N              -14.99              15.574              -0.238              
H              -15.12              15.115              0.635               
H              -15.039             16.608              -0.279              
H              -16.4078            16.1809             -5.49574            
H              -16.5988            31.6524             2.59055             
