291
5.xyz
C              29.564              12.334              15.737              
O              29.771              13.54               15.835              
N              30.49               11.498              15.278              
C              31.8                12                  14.895              
C              31.753              12.909              13.666              
O              32.545              13.847              13.551              
C              32.766              10.832              14.713              
C              33.353              10.376              16.055              
H              30.208              10.511              15.222              
H              32.142              12.566              15.663              
H              32.276              10.07               14.315              
H              33.512              11.122              14.131              
O              33.733              11.207              16.889              
N              33.41               9.074               16.272              
H              33.081              8.438               15.566              
H              33.777              8.717               17.129              
N              30.815              12.645              12.759              
C              30.654              13.49               11.581              
C              30.165              14.853              12.094              
O              30.412              15.889              11.479              
C              29.617              12.897              10.587              
C              29.126              13.986              9.611               
C              30.251              11.736              9.818               
H              30.232              11.817              12.958              
H              31.54               13.624              11.165              
H              28.828              12.608              11.112              
H              29.176              13.633              8.68                
H              28.184              14.221              9.836               
H              29.709              14.789              9.702               
H              29.732              11.579              8.979               
H              31.195              11.97               9.594               
H              30.23               10.917              10.389              
N              29.471              14.847              13.228              
C              29.007              16.092              13.826              
C              30.241              16.916              14.203              
O              30.147              18.127              14.435              
C              28.19               15.82               15.089              
S              26.515              15.153              14.809              
H              29.296              13.913              13.633              
H              28.494              16.601              13.144              
H              28.693              15.162              15.652              
H              28.098              16.681              15.594              
N              31.386              16.245              14.276              
C              32.635              16.906              14.62               
C              33.335              17.505              13.412              
O              34.356              18.189              13.545              
H              31.31               15.23               14.07               
H              32.451              17.64               15.297              
H              33.256              16.239              15.068              
N              32.786              17.261              12.224              
C              33.369              17.809              11.007              
C              32.975              19.291              10.936              
O              32.057              19.726              11.631              
C              32.872              17.035              9.781               
C              33.523              15.664              9.653               
H              31.94               16.67               12.244              
H              34.356              17.779              11.107              
H              31.889              16.911              9.864               
H              33.087              17.564              8.966               
O              34.449              15.342              10.386              
N              33.035              14.85               8.72                
H              32.277              15.164              8.143               
H              33.418              13.94               8.595               
N              33.645              20.078              10.077              
C              33.328              21.507              9.976               
C              31.856              21.807              9.768               
O              31.159              21.097              9.036               
C              34.18               21.984              8.798               
C              35.293              21.032              8.752               
C              34.686              19.698              9.111               
H              33.685              22.004              10.795              
H              33.641              21.967              7.95                
H              34.499              22.923              8.957               
H              35.705              20.993              7.834               
H              36.013              21.278              9.412               
H              34.284              19.256              8.314               
H              35.358              19.095              9.534               
N              31.385              22.856              10.429              
C              30.007              23.276              10.281              
C              29.834              23.782              8.861               
O              30.748              24.38               8.287               
C              29.699              24.41               11.243              
C              29.517              23.933              12.642              
H              32.072              23.332              11.042              
H              29.435              22.467              10.375              
H              30.458              25.059              11.214              
H              28.86               24.86               10.938              
O              30.418              23.348              13.231              
N              28.346              24.178              13.193              
H              27.629              24.654              12.681              
H              28.161              23.886              14.138              
N              28.668              23.532              8.287               
C              28.375              23.996              6.946               
C              28.702              22.91               5.916               
C              27.635              21.835              5.732               
S              28.059              20.724              4.385               
C              27.28               21.454              3.025               
H              28.001              22.989              8.868               
H              28.914              24.818              6.768               
H              28.865              23.351              5.017               
H              29.567              22.454              6.186               
H              27.536              21.325              6.609               
H              26.741              22.293              5.56                
H              26.481              22.005              3.312               
H              27.912              22.067              2.526               
H              26.951              20.755              2.372               
C              14.797              0.179               -2.13               
O              14.841              -0.572              -3.107              
N              15.576              1.24                -1.993              
C              16.547              1.589               -3.014              
C              17.93               1.728               -2.394              
O              18.196              2.691               -1.699              
C              16.162              2.917               -3.695              
O              14.91               2.753               -4.371              
C              17.25               3.353               -4.692              
H              15.436              1.781               -1.122              
H              16.579              0.851               -3.695              
H              16.047              3.632               -2.978              
H              17.551              2.561               -5.222              
H              16.876              4.046               -5.308              
H              18.026              3.734               -4.19               
H              14.23               3.4                 -4.01               
N              18.82               0.753               -2.632              
C              20.185              0.772               -2.096              
C              21.11               1.716               -2.847              
O              21.042              1.824               -4.068              
C              20.643              -0.68               -2.225              
C              19.874              -1.203              -3.395              
C              18.55               -0.467              -3.417              
H              20.172              0.996               -1.104              
H              21.629              -0.727              -2.395              
H              20.427              -1.196              -1.395              
H              20.382              -1.043              -4.253              
H              19.724              -2.198              -3.304              
H              18.282              -0.233              -4.35               
H              17.827              -1.009              -2.988              
N              21.976              2.403               -2.114              
C              22.916              3.329               -2.737              
C              24.103              3.592               -1.831              
O              24.152              3.133               -0.703              
C              22.216              4.651               -3.083              
H              21.929              2.231               -1.096              
H              23.248              2.921               -3.597              
H              21.304              4.456               -3.437              
H              22.146              5.21                -2.26               
H              22.75               5.133               -3.774              
N              25.075              4.319               -2.35               
C              26.26               4.679               -1.591              
C              26.431              6.175               -1.795              
O              26.828              6.616               -2.87               
C              27.487              3.948               -2.129              
C              27.907              2.816               -1.243              
H              24.921              4.61                -3.341              
H              26.056              4.537               -0.635              
H              27.265              3.59                -3.032              
H              28.235              4.604               -2.197              
O              27.428              1.692               -1.388              
N              28.804              3.101               -0.302              
H              29.155              4.034               -0.213              
H              29.126              2.385               0.316               
N              26.104              6.969               -0.786              
C              26.246              8.403               -0.95               
C              26.732              9.074               0.316               
O              26.879              8.434               1.362               
C              24.916              9.039               -1.366              
C              23.976              8.13                -2.151              
S              22.37               8.939               -2.516              
C              21.878              8.103               -4.058              
H              25.766              6.508               0.06                
H              26.931              8.571               -1.677              
H              24.43               9.354               -0.534              
H              25.109              9.858               -1.931              
H              24.433              7.852               -3.019              
H              23.823              7.273               -1.62               
H              22.277              7.19                -4.069              
H              20.884              8.043               -4.087              
H              22.213              8.634               -4.831              
N              26.996              10.369              0.189               
C              27.427              11.188              1.303               
C              26.155              11.605              2.011               
O              25.063              11.506              1.458               
C              28.118              12.471              0.817               
C              29.452              12.247              0.177               
C              30.584              12.023              0.958               
C              29.585              12.288              -1.202              
C              31.827              11.843              0.373               
C              30.835              12.108              -1.802              
C              31.951              11.886              -1.017              
H              26.866              10.741              -0.78               
H              27.924              10.601              1.925               
H              27.521              12.897              0.151               
H              28.246              13.057              1.605               
H              30.5                11.99               1.95                
H              28.785              12.446              -1.777              
H              32.635              11.684              0.948               
H              30.91               12.144              -2.81               
H              32.849              11.755              -1.434              
N              26.295              12.072              3.239               
C              25.144              12.565              3.953               
C              25.55               13.819              4.685               
O              26.724              14.02               5.021               
C              24.57               11.529              4.936               
C              25.498              11.041              6.03                
C              26.231              9.876               5.861               
C              25.604              11.717              7.252               
C              27.046              9.382               6.869               
C              26.423              11.229              8.279               
C              27.141              10.054              8.076               
O              27.953              9.52                9.063               
H              27.252              12.051              3.617               
H              24.433              12.802              3.291               
H              23.758              11.936              5.373               
H              24.272              10.728              4.401               
H              26.173              9.376               4.991               
H              25.092              12.557              7.394               
H              27.569              8.537               6.723               
H              26.488              11.718              9.142               
H              27.502              8.723               9.456               
N              24.565              14.68               4.889               
C              24.753              15.92               5.609               
C              23.743              15.847              6.741               
O              22.556              15.629              6.515               
C              24.474              17.141              4.701               
C              25.52               17.188              3.58                
C              24.508              18.445              5.527               
C              25.149              18.084              2.447               
H              23.645              14.385              4.485               
H              25.643              15.874              6.024               
H              23.585              17.015              4.287               
H              26.386              17.492              3.979               
H              25.642              16.254              3.238               
H              24.31               19.213              4.926               
H              23.822              18.39               6.246               
H              25.413              18.55               5.927               
H              25.032              19.023              2.778               
H              25.87               18.071              1.75                
H              24.29               17.774              2.033               
N              24.24               15.976              7.962               
C              23.409              15.925              9.157               
C              23.538              17.218              9.94                
O              24.609              17.829              9.981               
C              23.841              14.787              10.13               
C              23.387              13.447              9.597               
C              25.376              14.814              10.342              
H              25.276              16.117              7.995               
H              22.451              15.828              8.869               
H              23.37               14.943              10.99               
H              23.25               12.809              10.357              
H              22.525              13.555              9.099               
H              24.081              13.076              8.977               
H              25.748              15.602              9.861               
H              25.559              14.885              11.318              
H              25.76               13.972              9.977               
N              22.432              17.625              10.547              
C              22.41               18.796              11.394              
C              22.599              18.205              12.787              
O              21.987              17.183              13.128              
C              21.075              19.493              11.296              
H              21.593              17.033              10.36               
H              23.177              19.366              11.189              
H              20.343              18.868              11.575              
H              21.065              20.296              11.895              
H              20.913              19.787              10.352              
N              23.466              18.825              13.574              
C              23.757              18.379              14.924              
C              23.549              19.509              15.91               
O              23.665              20.697              15.556              
C              25.193              17.876              15.014              
S              25.525              16.594              13.775              
H              23.921              19.662              13.138              
H              23.119              17.636              15.157              
H              25.803              18.631              14.845              
H              25.333              17.483              15.907              
N              23.233              19.14               17.145              
C              22.992              20.115              18.191              
C              23.463              19.553              19.52               
O              23.794              18.372              19.64               
C              21.486              20.403              18.312              
C              20.993              21.444              17.321              
O              21.772              22.341              16.941              
O              19.813              21.376              16.919              
H              23.175              18.112              17.291              
H              23.56               20.916              17.992              
H              21                  19.551              18.15               
H              21.312              20.73               19.234              
N              23.482              20.409              20.527              
H              23.244              21.382              20.291              
H              14.122              0.000315436         -1.34407            
H              27.3165             24.2689             6.89358             
H              28.6092             11.9166             15.9918             
H              23.7193             20.0912             21.4512             
