352
0.xyz
N              7.144               14.627              12.23               
C              7.184               15.152              13.63               
C              7.826               14.144              14.564              
O              8.138               13.016              14.168              
C              5.776               15.477              14.128              
C              4.772               15.666              13.014              
S              4.489               14.141              12.115              
C              4.627               12.969              13.431              
H              6.683               15.291              11.648              
H              7.744               15.984              13.618              
H              5.46                14.728              14.723              
H              5.812               16.322              14.676              
H              3.9                 16.019              13.415              
H              5.11                16.4                12.388              
H              3.799               12.401              13.479              
H              5.42                12.37               13.281              
H              4.743               13.444              14.309              
H              8.076               14.485              11.91               
H              6.647               13.764              12.221              
N              7.986               14.548              15.817              
C              8.621               13.7                16.8                
C              7.731               13.328              17.975              
O              7.064               14.183              18.54               
C              9.879               14.418              17.301              
C              10.462              13.909              18.602              
C              11.891              14.43               18.801              
C              11.916              15.736              19.584              
N              11.199              15.614              20.883              
H              7.624               15.499              16.019              
H              8.926               12.837              16.343              
H              10.584              14.34               16.586              
H              9.652               15.393              17.415              
H              9.902               14.225              19.364              
H              10.488              12.913              18.589              
H              12.41               13.746              19.304              
H              12.299              14.586              17.907              
H              12.87               15.992              19.757              
H              11.481              16.453              19.033              
H              11.432              16.393              21.464              
H              10.213              15.602              20.718              
H              11.473              14.765              21.334              
N              7.661               12.027              18.32               
C              6.842               11.592              19.468              
C              7.488               12.231              20.724              
O              8.711               12.369              20.793              
C              6.949               10.065              19.43               
C              7.368               9.758               17.979              
C              8.276               10.887              17.618              
H              5.908               11.879              19.373              
H              7.646               9.734               20.059              
H              6.075               9.634               19.627              
H              7.836               8.879               17.952              
H              6.557               9.733               17.403              
H              9.206               10.736              17.948              
H              8.291               11.051              16.632              
N              6.677               12.58               21.745              
C              7.138               13.227              22.986              
C              8.177               12.496              23.828              
O              8.997               13.128              24.511              
C              5.84                13.469              23.755              
C              4.961               12.332              23.3                
C              5.24                12.247              21.821              
H              7.466               14.189              22.773              
H              5.993               13.423              24.738              
H              5.437               14.345              23.51               
H              5.217               11.489              23.763              
H              4.004               12.543              23.473              
H              5.075               11.329              21.47               
H              4.699               12.91               21.308              
N              8.149               11.17               23.775              
C              9.081               10.359              24.55               
C              10.514              10.301              24.005              
O              11.383              9.721               24.65               
C              8.543               8.933               24.69               
C              8.629               8.118               23.422              
C              7.323               8.12                22.662              
H              7.425               10.771              23.15               
H              9.131               10.755              25.492              
H              9.067               8.464               25.404              
H              7.581               8.982               24.97               
H              9.339               8.504               22.836              
H              8.86                7.176               23.657              
O              6.654               9.149               22.555              
N              6.95                6.963               22.124              
H              6.076               6.883               21.609              
H              7.556               6.152               22.234              
N              10.768              10.9                22.839              
C              12.117              10.883              22.256              
C              12.764              12.276              22.233              
O              12.076              13.295              22.068              
C              12.111              10.405              20.788              
C              11.534              9.027               20.556              
C              10.175              8.861               20.302              
C              12.356              7.91                20.508              
C              9.645               7.616               20.005              
C              11.831              6.647               20.211              
C              10.475              6.504               19.96               
H              9.96                11.362              22.396              
H              12.689              10.31               22.859              
H              11.571              11.054              20.265              
H              13.053              10.399              20.472              
H              9.569               9.655               20.333              
H              13.334              8.003               20.686              
H              8.659               7.523               19.824              
H              12.449              5.847               20.184              
H              10.092              5.606               19.747              
N              14.091              12.304              22.375              
C              14.851              13.551              22.279              
C              15.11               13.584              20.772              
O              14.878              12.583              20.098              
C              16.208              13.466              22.989              
O              16.948              12.351              22.459              
C              16.023              13.316              24.507              
H              14.528              11.38               22.556              
H              14.273              14.29               22.507              
H              16.738              14.314              22.797              
H              15.087              13.565              24.754              
H              16.197              12.367              24.771              
H              16.665              13.918              24.981              
H              17.852              12.297              22.894              
N              15.588              14.694              20.226              
C              15.813              14.7                18.782              
C              16.846              13.654              18.369              
O              16.704              13.025              17.326              
C              16.225              16.091              18.309              
C              15.091              17.054              18.356              
C              14.893              18.042              19.28               
C              14.022              17.162              17.419              
N              13.763              18.765              18.969              
C              13.211              18.247              17.83               
C              13.668              16.451              16.268              
C              12.07               18.638              17.129              
C              12.53               16.84               15.567              
C              11.746              17.926              16.003              
H              15.768              15.471              20.847              
H              14.942              14.459              18.335              
H              16.935              16.435              18.903              
H              16.531              16.034              17.372              
H              15.481              18.217              20.068              
H              13.407              19.538              19.489              
H              14.213              15.682              15.949              
H              11.518              19.412              17.45               
H              12.27               16.342              14.749              
H              10.937              18.174              15.47               
N              17.87               13.457              19.196              
C              18.911              12.471              18.912              
C              18.346              11.048              18.914              
O              18.727              10.217              18.087              
C              20.021              12.581              19.937              
H              17.865              14.054              20.046              
H              19.297              12.659              18                  
H              19.914              11.866              20.629              
H              20.908              12.473              19.487              
H              19.983              13.477              20.381              
N              17.444              10.767              19.851              
C              16.845              9.439               19.954              
C              15.94               9.171               18.757              
O              15.865              8.052               18.256              
C              16.057              9.329               21.259              
C              16.96               9.268               22.5                
C              16.193              9.387               23.805              
H              17.21               11.552              20.484              
H              17.586              8.762               19.937              
H              15.467              10.125              21.351              
H              15.509              8.497               21.24               
H              17.447              8.394               22.492              
H              17.621              10.017              22.445              
O              15.055              9.833               23.825              
N              16.82               8.985               24.9                
H              16.375              9.047               25.812              
H              17.764              8.607               24.817              
N              15.267              10.215              18.291              
C              14.371              10.097              17.154              
C              15.208              9.954               15.879              
O              14.79               9.284               14.927              
C              13.467              11.333              17.098              
C              12.436              11.288              16.022              
C              12.24               12.224              15.049              
C              11.459              10.256              15.795              
N              11.205              11.842              14.227              
C              10.708              10.639              14.658              
C              11.146              9.047               16.44               
C              9.66                9.856               14.145              
C              10.098              8.265               15.931              
C              9.371               8.677               14.792              
H              15.435              11.105              18.801              
H              13.843              9.256               17.259              
H              12.989              11.418              17.967              
H              14.034              12.136              16.937              
H              12.768              13.065              14.945              
H              10.868              12.359              13.44               
H              11.65               8.743               17.239              
H              9.152               10.162              13.337              
H              9.87                7.414               16.382              
H              8.635               8.092               14.459              
N              16.389              10.578              15.867              
C              17.296              10.501              14.721              
C              17.79               9.061               14.599              
O              17.877              8.486               13.491              
C              18.502              11.432              14.912              
C              19.558              11.255              13.863              
C              19.52               12.007              12.679              
C              20.557              10.288              14.018              
C              20.463              11.801              11.652              
C              21.503              10.069              13                  
C              21.454              10.831              11.809              
H              16.604              11.115              16.73               
H              16.754              10.69               13.907              
H              18.173              12.361              14.866              
H              18.901              11.228              15.79               
H              18.819              12.7                12.556              
H              20.602              9.75                14.853              
H              20.41               12.353              10.82               
H              22.214              9.367               13.121              
H              22.122              10.673              11.093              
N              18.112              8.478               15.751              
C              18.58               7.099               15.797              
C              17.482              6.133               15.33               
O              17.738              5.189               14.577              
C              18.999              6.736               17.224              
C              19.556              5.333               17.34               
C              20.277              5.115               18.64               
O              19.8                5.623               19.68               
O              21.321              4.446               18.626              
H              18.003              9.077               16.589              
H              19.387              6.991               15.206              
H              19.702              7.363               17.496              
H              18.202              6.792               17.792              
H              18.806              4.7                 17.301              
H              20.2                5.195               16.611              
N              16.262              6.382               15.79               
C              15.117              5.561               15.45               
C              14.803              5.656               13.961              
O              14.427              4.667               13.325              
C              13.889              6.009               16.29               
O              14.224              5.908               17.674              
C              12.678              5.136               16.019              
H              16.202              7.219               16.416              
H              15.331              4.6                 15.665              
H              13.69               6.981               16.075              
H              12.968              4.264               15.615              
H              12.19               4.953               16.876              
H              12.057              5.6                 15.382              
H              14.855              6.646               17.939              
N              14.989              6.845               13.395              
C              14.677              7.057               11.985              
C              15.743              6.742               10.948              
O              15.42               6.262               9.852               
C              14.272              8.503               11.755              
C              12.938              8.903               12.302              
C              12.481              10.187              11.648              
H              15.36               7.578               14.019              
H              13.849              6.472               11.764              
H              14.978              9.102               12.167              
H              14.273              8.68                10.756              
H              12.274              8.195               12.104              
H              13.013              9.055               13.278              
O              11.449              10.222              10.988              
N              13.266              11.249              11.815              
H              13.031              12.144              11.393              
H              14.111              11.151              12.376              
N              16.999              7.022               11.282              
C              18.076              6.842               10.324              
C              19.194              5.86                10.658              
O              20.065              5.622               9.822               
C              18.674              8.213               10.015              
C              17.646              9.235               9.652               
H              17.132              7.365               12.246              
H              17.653              6.539               9.424               
H              19.176              8.541               10.821              
H              19.317              8.124               9.248               
N              16.908              9.161               8.492               
C              17.188              10.322              10.321              
C              16.039              10.155              8.461               
N              16.189              10.874              9.559               
H              17.015              8.462               7.784               
H              17.516              10.657              11.199              
H              15.383              10.334              7.734               
N              19.181              5.284               11.857              
C              20.235              4.351               12.223              
C              19.736              2.944               12.555              
O              20.305              1.952               12.103              
C              21.061              4.885               13.429              
C              21.716              6.23                13.074              
C              22.104              3.843               13.848              
C              22.814              6.149               12.021              
H              18.399              5.546               12.468              
H              20.83               4.257               11.405              
H              20.433              5.036               14.181              
H              21.002              6.851               12.747              
H              22.107              6.616               13.912              
H              22.598              4.176               14.647              
H              21.643              2.988               14.07               
H              22.742              3.696               13.096              
H              22.43               5.781               11.177              
H              23.177              7.063               11.857              
H              23.54               5.551               12.352              
N              18.675              2.845               13.339              
C              18.181              1.525               13.716              
C              17.161              0.965               12.752              
O              15.955              0.998               13.022              
C              17.589              1.559               15.119              
C              18.648              1.747               16.194              
H              18.253              3.728               13.642              
H              18.981              0.897               13.706              
H              16.946              2.317               15.175              
H              17.119              0.697               15.287              
O              19.828              1.478               15.97               
N              18.228              2.218               17.367              
H              17.256              2.421               17.499              
H              18.877              2.367               18.109              
N              17.646              0.45                11.621              
C              16.746              -0.146              10.65               
C              16.443              -1.537              11.22               
O              17.253              -2.468              11.097              
C              17.411              -0.227              9.275               
C              16.391              -0.245              8.158               
S              17.066              -0.401              6.493               
C              15.559              -0.823              5.603               
H              18.665              0.513               11.509              
H              15.907              0.364               10.639              
H              18.007              0.567               9.155               
H              17.957              -1.064              9.227               
H              15.714              -1.012              8.349               
H              15.809              0.614               8.235               
H              15.665              -1.723              5.181               
H              14.791              -0.841              6.242               
H              15.39               -0.138              4.895               
N              15.27               -1.67               11.84               
C              14.894              -2.921              12.499              
C              14.722              -4.146              11.61               
O              14.673              -5.267              12.108              
C              13.643              -2.731              13.362              
O              12.531              -2.362              12.543              
C              13.892              -1.655              14.406              
H              14.664              -0.831              11.815              
H              15.619              -3.138              13.201              
H              13.419              -3.618              13.821              
H              14.842              -1.702              14.724              
H              13.724              -0.749              14.009              
H              13.278              -1.789              15.187              
H              12.719              -2.576              11.578              
N              14.655              -3.921              10.302              
C              14.525              -4.981              9.307               
C              13.057              -5.26               9.008               
O              12.923              -5.906              7.762               
H              14.704              -2.904              10.041              
H              15.03               -5.77               9.625               
H              12.689              -5.847              9.722               
H              12.565              -4.396              8.982               
H              11.975              -5.84               7.448               
H              15.0083             -4.61189            8.39714             
