291
5.xyz
C              29.788              12.182              16.062              
O              30.024              13.399              16.198              
N              30.677              11.327              15.562              
C              31.987              11.82               15.189              
C              31.949              12.727              13.957              
O              32.749              13.651              13.85               
C              32.967              10.647              15.033              
C              33.56               10.223              16.38               
H              30.367              10.359              15.474              
H              32.328              12.388              15.956              
H              32.478              9.876               14.65               
H              33.707              10.932              14.441              
O              33.874              11.071              17.222              
N              33.703              8.92                16.591              
H              33.429              8.273               15.873              
H              34.078              8.586               17.45               
N              31.011              12.484              13.046              
C              30.866              13.326              11.862              
C              30.403              14.707              12.331              
O              30.651              15.713              11.66               
C              29.831              12.74               10.85               
C              29.475              13.777              9.771               
C              30.404              11.481              10.201              
H              30.408              11.666              13.245              
H              31.759              13.43               11.439              
H              28.998              12.55               11.354              
H              29.567              13.356              8.872               
H              28.535              14.081              9.908               
H              30.097              14.553              9.847               
H              31.39               11.451              10.36               
H              29.97               10.678              10.606              
H              30.22               11.506              9.22                
N              29.72               14.752              13.477              
C              29.276              16.032              14.044              
C              30.517              16.84               14.377              
O              30.44               18.04               14.58               
C              28.472              15.826              15.33               
S              26.807              15.107              15.101              
H              29.537              13.837              13.917              
H              28.76               16.517              13.348              
H              28.99               15.215              15.929              
H              28.363              16.715              15.777              
N              31.654              16.159              14.463              
C              32.91               16.819              14.773              
C              33.61               17.396              13.557              
O              34.615              18.093              13.694              
H              31.566              15.139              14.293              
H              32.74               17.566              15.445              
H              33.533              16.156              15.233              
N              33.095              17.107              12.362              
C              33.697              17.63               11.136              
C              33.315              19.106              11.033              
O              32.452              19.576              11.767              
C              33.227              16.823              9.913               
C              33.803              15.396              9.895               
H              32.26               16.5                12.378              
H              34.682              17.592              11.25               
H              32.238              16.758              9.938               
H              33.529              17.29               9.091               
O              34.729              15.077              10.651              
N              33.253              14.54               9.045               
H              32.502              14.846              8.452               
H              33.58               13.6                8.991               
N              33.942              19.854              10.123              
C              33.598              21.276              10.028              
C              32.129              21.611              9.814               
O              31.405              20.896              9.108               
C              34.481              21.787              8.889               
C              35.596              20.789              8.795               
C              34.974              19.472              9.149               
H              33.961              21.78               10.854              
H              33.965              21.826              8.029               
H              34.837              22.701              9.097               
H              35.972              20.773              7.864               
H              36.331              21.026              9.437               
H              34.56               19.035              8.352               
H              35.638              18.851              9.565               
N              31.697              22.703              10.438              
C              30.323              23.17               10.3                
C              30.127              23.638              8.862               
O              31.035              24.197              8.252               
C              30.053              24.342              11.237              
C              29.796              23.91               12.659              
H              32.41               23.183              11.02               
H              29.726              22.384              10.435              
H              30.849              24.945              11.224              
H              29.251              24.835              10.902              
O              30.661              23.337              13.319              
N              28.607              24.198              13.147              
H              27.925              24.672              12.586              
H              28.373              23.943              14.091              
N              28.952              23.38               8.31                
C              28.643              23.805              6.954               
C              29.017              22.71               5.934               
C              28.062              21.521              5.85                
S              28.288              20.46               4.377               
C              29.995              20.846              3.902               
H              28.287              22.861              8.914               
H              29.174              24.629              6.751               
H              29.078              23.134              5.014               
H              29.942              22.359              6.163               
H              28.164              20.96               6.711               
H              27.094              21.877              5.886               
H              30.353              21.545              4.517               
H              30.546              20.018              3.971               
H              30.003              21.183              2.963               
C              14.919              0.22                -2.032              
O              14.959              -0.534              -3.006              
N              15.765              1.228               -1.866              
C              16.796              1.518               -2.85               
C              18.157              1.593               -2.202              
O              18.432              2.514               -1.424              
C              16.554              2.857               -3.545              
O              15.276              2.84                -4.187              
C              17.653              3.125               -4.553              
H              15.63               1.776               -0.996              
H              16.804              0.773               -3.531              
H              16.546              3.6                 -2.844              
H              18.457              3.509               -4.091              
H              17.917              2.27                -5.008              
H              17.332              3.777               -5.245              
H              14.575              3.234               -3.583              
N              19.026              0.614               -2.501              
C              20.366              0.626               -1.914              
C              21.26               1.617               -2.657              
O              21.076              1.848               -3.851              
C              20.841              -0.824              -2.055              
C              20.071              -1.377              -3.206              
C              18.793              -0.569              -3.354              
H              20.328              0.846               -0.936              
H              21.83               -0.855              -2.235              
H              20.653              -1.34               -1.213              
H              20.619              -1.327              -4.059              
H              19.851              -2.356              -3.051              
H              18.648              -0.295              -4.304              
H              18                  -1.086              -3.031              
N              22.214              2.202               -1.933              
C              23.156              3.171               -2.486              
C              24.311              3.417               -1.514              
O              24.257              3.006               -0.363              
C              22.429              4.496               -2.779              
H              22.23               1.905               -0.928              
H              23.533              2.805               -3.343              
H              23.097              5.236               -2.8                
H              21.97               4.427               -3.661              
H              21.759              4.665               -2.061              
N              25.356              4.08                -1.997              
C              26.514              4.429               -1.183              
C              26.714              5.905               -1.441              
O              27.112              6.302               -2.537              
C              27.768              3.68                -1.627              
C              27.579              2.194               -1.614              
H              25.277              4.33                -3.01               
H              26.251              4.328               -0.241              
H              27.993              3.972               -2.554              
H              28.51               3.92                -1.005              
O              27.143              1.609               -2.606              
N              27.892              1.566               -0.488              
H              28.229              2.087               0.298               
H              27.792              0.573               -0.421              
N              26.411              6.721               -0.447              
C              26.55               8.151               -0.618              
C              27.028              8.78                0.653               
O              27.14               8.125               1.69                
C              25.209              8.782               -0.999              
C              24.531              8.133               -2.182              
S              22.899              8.806               -2.496              
C              21.886              7.613               -1.677              
H              26.083              6.268               0.418               
H              27.239              8.315               -1.335              
H              24.589              8.73                -0.202              
H              25.359              9.76                -1.209              
H              25.135              8.242               -3.006              
H              24.482              7.12                -2.017              
H              22.299              7.349               -0.8                
H              20.973              7.994               -1.501              
H              21.787              6.791               -2.247              
N              27.314              10.067              0.541               
C              27.751              10.874              1.659               
C              26.484              11.308              2.346               
O              25.407              11.284              1.751               
C              28.451              12.134              1.162               
C              29.782              11.887              0.573               
C              30.879              11.662              1.39                
C              29.954              11.904              -0.8                
C              32.13               11.464              0.851               
C              31.21               11.703              -1.35               
C              32.297              11.485              -0.518              
H              27.196              10.45               -0.429              
H              28.231              10.275              2.283               
H              27.87               12.545              0.47                
H              28.556              12.743              1.939               
H              30.76               11.642              2.381               
H              29.17               12.061              -1.398              
H              32.919              11.306              1.46                
H              31.328              11.718              -2.355              
H              33.209              11.341              -0.912              
N              26.606              11.698              3.605               
C              25.451              12.202              4.316               
C              25.865              13.479              5.021               
O              27.037              13.675              5.364               
C              24.89               11.179              5.306               
C              25.849              10.679              6.357               
C              26.546              9.477               6.177               
C              26.002              11.357              7.577               
C              27.371              8.959               7.194               
C              26.823              10.851              8.6                 
C              27.503              9.649               8.401               
O              28.304              9.123               9.397               
H              27.548              11.614              4.009               
H              24.74               12.427              3.654               
H              24.103              11.598              5.773               
H              24.561              10.386              4.78                
H              26.461              8.977               5.32                
H              25.52               12.216              7.723               
H              27.859              8.101               7.048               
H              26.916              11.347              9.456               
H              27.849              8.329               9.794               
N              24.896              14.37               5.164               
C              25.091              15.633              5.839               
C              24.108              15.612              7.003               
O              22.918              15.441              6.799               
C              24.765              16.811              4.903               
C              25.791              16.851              3.762               
C              24.743              18.126              5.709               
C              25.445              17.818              2.648               
H              23.98               14.078              4.746               
H              25.993              15.609              6.235               
H              23.873              16.651              4.506               
H              26.679              17.103              4.147               
H              25.863              15.93               3.377               
H              24.506              18.875              5.099               
H              24.065              18.05               6.433               
H              25.644              18.28               6.102               
H              25.383              18.742              3.021               
H              26.157              17.785              1.949               
H              24.568              17.559              2.246               
N              24.607              15.757              8.222               
C              23.73               15.744              9.385               
C              23.801              17.042              10.169              
O              24.857              17.684              10.245              
C              24.083              14.603              10.367              
C              23.447              13.304              9.901               
C              25.618              14.464              10.493              
H              25.63               15.875              8.273               
H              22.779              15.628              9.059               
H              23.68               14.829              11.245              
H              24.163              12.645              9.667               
H              22.877              12.929              10.632              
H              22.88               13.478              9.095               
H              25.986              15.317              10.853              
H              25.819              13.711              11.113              
H              25.995              14.278              9.59                
N              22.66               17.433              10.725              
C              22.577              18.613              11.571              
C              22.808              18.048              12.976              
O              22.261              16.994              13.334              
C              21.186              19.236              11.476              
H              21.841              16.828              10.504              
H              23.31               19.222              11.355              
H              20.613              18.678              10.878              
H              20.778              19.277              12.387              
H              21.261              20.159              11.102              
N              23.635              18.722              13.763              
C              23.927              18.274              15.114              
C              23.748              19.424              16.081              
O              23.895              20.598              15.72               
C              25.358              17.758              15.231              
S              25.799              16.495              14.002              
H              24.045              19.576              13.339              
H              23.273              17.553              15.356              
H              25.98               18.529              15.119              
H              25.474              17.36               16.139              
N              23.437              19.064              17.315              
C              23.239              20.033              18.374              
C              23.747              19.475              19.694              
O              24.175              18.324              19.784              
C              21.752              20.363              18.518              
C              21.511              21.67               19.271              
O              22.486              22.368              19.649              
O              20.33               22.005              19.483              
H              23.348              18.033              17.457              
H              23.803              20.836              18.158              
H              21.364              20.447              17.609              
H              21.318              19.626              19.019              
N              23.716              20.322              20.712              
H              23.395              21.282              20.466              
H              14.1952             0.0866846           -1.2684             
H              27.578              24.0642             6.88291             
H              28.8387             11.7834             16.314              
H              23.9824             20.0389             21.6258             
