304
3.xyz
C              27.16               24.166              6.855               
O              26.344              23.777              7.699               
N              26.812              24.936              5.836               
C              25.43               25.323              5.636               
C              24.596              24.081              5.271               
O              25.021              23.234              4.466               
C              25.308              26.364              4.499               
O              26.174              27.474              4.769               
C              23.86               26.856              4.373               
H              27.589              25.226              5.217               
H              25.066              25.696              6.491               
H              25.607              25.93               3.626               
H              23.236              26.077              4.441               
H              23.663              27.506              5.108               
H              23.736              27.306              3.488               
H              26.928              27.191              5.371               
N              23.416              23.978              5.87                
C              22.526              22.856              5.611               
C              21.845              23.026              4.271               
O              21.059              23.959              4.088               
C              21.455              22.769              6.699               
S              22.128              22.49               8.354               
H              23.189              24.751              6.525               
H              23.078              22.016              5.581               
H              20.95               23.625              6.707               
H              20.848              22.012              6.477               
N              22.127              22.121              3.314               
C              21.518              22.189              1.975               
C              19.994              22.327              2.023               
O              19.411              23.056              1.219               
C              21.941              20.877              1.306               
C              23.123              20.413              2.071               
C              23.058              20.985              3.453               
H              21.927              22.945              1.438               
H              21.192              20.205              1.348               
H              22.171              21.034              0.339               
H              23.146              19.392              2.106               
H              23.984              20.701              1.604               
H              22.701              20.321              4.112               
H              23.956              21.306              3.764               
N              19.362              21.646              2.98                
C              17.905              21.679              3.133               
C              17.316              22.886              3.878               
O              16.105              23.114              3.825               
C              17.426              20.387              3.784               
O              17.557              19.311              2.869               
H              19.987              21.094              3.603               
H              17.494              21.671              2.191               
H              17.982              20.202              4.583               
H              16.472              20.485              4.032               
H              18.049              18.56               3.307               
N              18.153              23.635              4.592               
C              17.717              24.855              5.283               
C              18.899              25.791              5.323               
O              19.658              25.808              6.295               
C              17.239              24.61               6.716               
C              16.627              25.879              7.357               
H              19.133              23.287              4.62                
H              17.019              25.275              4.715               
H              16.54               23.907              6.707               
H              18.013              24.332              7.27                
O              16.662              26.98               6.776               
N              16.067              25.721              8.558               
H              16.069              24.818              8.989               
H              15.651              26.499              9.022               
N              19.032              26.555              4.243               
C              20.098              27.522              4.029               
C              20.39               28.5                5.164               
O              21.461              29.11               5.187               
C              19.798              28.313              2.754               
C              19.397              27.441              1.575               
C              20.385              26.292              1.371               
C              21.176              26.461              0.07                
N              22.51               27.097              0.301               
H              18.266              26.394              3.523               
H              20.969              27.005              3.821               
H              19.051              28.943              2.947               
H              20.618              28.823              2.504               
H              18.491              27.056              1.744               
H              19.377              27.997              0.746               
H              21.025              26.281              2.129               
H              19.881              25.439              1.323               
H              21.31               25.558              -0.345              
H              20.644              27.033              -0.559              
H              22.544              27.971              -0.18               
H              22.638              27.245              1.28                
H              23.226              26.493              -0.045              
N              19.449              28.673              6.09                
C              19.681              29.587              7.198               
C              20.438              28.903              8.328               
O              20.884              29.561              9.268               
C              18.359              30.143              7.773               
O              17.584              29.071              8.315               
C              17.562              30.836              6.696               
H              18.589              28.129              5.956               
H              20.238              30.359              6.866               
H              18.58               30.793              8.527               
H              16.586              30.617              6.792               
H              17.678              31.832              6.765               
H              17.873              30.537              5.788               
H              17.351              28.407              7.596               
N              20.602              27.586              8.224               
C              21.275              26.821              9.27                
C              22.741              26.487              8.983               
O              23.118              26.144              7.863               
C              20.487              25.534              9.558               
C              18.987              25.747              9.815               
C              18.715              26.134              11.263              
N              17.289              26.15               11.601              
C              16.523              27.246              11.625              
N              17.037              28.438              11.326              
N              15.24               27.155              11.967              
H              20.221              27.164              7.359               
H              21.235              27.357              10.14               
H              20.577              24.93               8.772               
H              20.875              25.104              10.368              
H              18.656              26.478              9.227               
H              18.5                24.901              9.621               
H              19.184              25.475              11.853              
H              19.098              27.046              11.416              
H              16.852              25.271              11.833              
H              17.993              28.526              11.061              
H              16.454              29.254              11.367              
H              14.853              26.256              12.186              
H              14.671              27.971              12.004              
N              23.56               26.587              10.022              
C              24.985              26.324              9.92                
C              25.411              25.223              10.898              
O              26.593              25.115              11.259              
C              25.758              27.618              10.209              
C              27.291              27.567              10.028              
C              27.746              26.555              8.993               
C              28.567              27.203              7.889               
N              29.392              28.392              8.292               
H              23.093              26.87               10.914              
H              25.199              26.018              8.985               
H              25.404              28.339              9.601               
H              25.573              27.889              11.162              
H              27.606              28.484              9.754               
H              27.706              27.341              10.917              
H              28.308              25.864              9.441               
H              26.944              26.129              8.582               
H              29.19               26.501              7.489               
H              27.938              27.488              7.138               
H              29.579              28.341              9.27                
H              30.248              28.381              7.781               
H              28.883              29.225              8.086               
N              24.457              24.399              11.327              
C              24.797              23.343              12.266              
C              24.913              22.012              11.578              
O              24.791              20.972              12.221              
C              23.777              23.272              13.415              
C              22.368              22.925              12.948              
H              23.52               24.57               10.955              
H              25.706              23.567              12.646              
H              24.078              22.572              14.058              
H              23.751              24.161              13.866              
O              21.982              23.202              11.814              
N              21.594              22.313              13.834              
H              21.941              22.11               14.751              
H              20.658              22.053              13.589              
N              25.155              22.032              10.268              
C              25.314              20.77               9.531               
C              26.771              20.309              9.392               
O              27.715              21.089              9.54                
C              24.676              20.869              8.151               
S              22.888              20.611              8.222               
H              25.218              22.959              9.838               
H              24.806              20.048              10.034              
H              24.844              21.772              7.791               
H              25.067              20.169              7.574               
N              26.943              19.023              9.114               
C              28.271              18.438              8.979               
C              28.26               17.373              7.894               
O              27.325              16.589              7.787               
C              28.706              17.836              10.314              
C              28.555              18.779              11.463              
H              26.064              18.479              9.003               
H              28.911              19.161              8.707               
H              28.153              17.018              10.5                
H              29.671              17.565              10.251              
N              29.575              19.606              11.877              
C              27.484              19.09               12.228              
C              29.138              20.389              12.846              
N              27.872              20.097              13.078              
H              30.502              19.611              11.5                
H              26.582              18.669              12.186              
H              29.673              21.082              13.322              
N              29.319              17.358              7.097               
C              29.455              16.442              5.981               
C              30.256              15.225              6.413               
O              31.291              15.364              7.075               
C              30.164              17.174              4.834               
C              29.847              16.638              3.477               
H              30.051              18.068              7.345               
H              28.541              16.135              5.703               
H              29.904              18.148              4.861               
H              31.16               17.111              4.977               
N              30.426              15.492              2.977               
C              29.056              17.12               2.491               
C              30.006              15.293              1.741               
N              29.174              16.267              1.423               
H              31.064              14.904              3.475               
H              28.493              17.942              2.531               
H              30.272              14.538              1.149               
N              29.799              14.036              6.029               
C              30.489              12.805              6.413               
C              31.936              12.624              5.92                
O              32.719              11.91               6.538               
C              29.664              11.579              6.006               
O              29.505              11.489              4.605               
H              28.942              14.058              5.454               
H              30.513              12.769              7.443               
H              30.129              10.758              6.336               
H              28.763              11.646              6.433               
H              29.968              10.67               4.267               
N              32.334              13.246              4.826               
C              33.717              13.001              4.429               
C              34.012              11.563              3.975               
O              35.129              11.249              3.594               
H              31.681              13.831              4.35                
H              33.968              13.64               3.672               
H              34.336              13.231              5.208               
N              33.018              10.68               4.032               
C              33.176              9.302               3.56                
C              31.801              8.817               3.151               
O              30.83               9.106               3.834               
C              33.723              8.393               4.663               
O              34.884              7.712               4.232               
H              32.132              11.046              4.434               
H              33.755              9.318               2.755               
H              33.948              8.952               5.456               
H              33.023              7.725               4.902               
H              35.055              7.918               3.269               
N              31.701              8.109               2.03                
C              30.398              7.598               1.597               
C              30.064              6.38                2.452               
O              30.959              5.694               2.94                
C              30.429              7.182               0.13                
C              30.225              8.307               -0.855              
C              30.319              7.813               -2.282              
H              32.577              7.958               1.517               
H              29.716              8.298               1.781               
H              31.32               6.752               -0.062              
H              29.708              6.494               -0.023              
H              29.322              8.702               -0.715              
H              30.928              8.997               -0.71               
O              30.872              6.745               -2.538              
N              29.774              8.579               -3.218              
H              29.811              8.318               -4.199              
H              29.311              9.444               -2.936              
N              28.781              6.112               2.644               
C              28.394              4.956               3.437               
C              27.252              4.231               2.755               
O              26.532              4.82                1.939               
C              27.922              5.381               4.842               
C              29.002              6.18                5.53                
C              26.649              6.204               4.737               
H              28.118              6.761               2.205               
H              29.177              4.331               3.484               
H              27.781              4.552               5.373               
H              29.8                5.598               5.701               
H              29.277              6.95                4.951               
H              28.66               6.532               6.404               
H              26.616              6.651               3.843               
H              25.856              5.603               4.84                
H              26.642              6.896               5.459               
N              27.1                2.924               3.038               
C              25.998              2.171               2.428               
C              24.707              2.68                3.072               
O              24.676              2.955               4.276               
C              26.272              0.72                2.827               
C              27.662              0.705               3.361               
C              27.94               2.071               3.891               
H              25.979              2.293               1.448               
H              25.613              0.416               3.527               
H              26.185              0.111               2.029               
H              27.751              0.007               4.091               
H              28.317              0.459               2.628               
H              27.669              2.16                4.849               
H              28.904              2.319               3.793               
N              23.651              2.823               2.279               
C              22.379              3.282               2.821               
C              21.186              2.647               2.111               
O              21.288              2.183               0.975               
C              22.286              4.819               2.74                
C              22.234              5.485               1.364               
C              20.816              5.471               0.846               
C              22.754              6.917               1.479               
H              23.806              2.59                1.288               
H              22.336              3.029               3.8                 
H              21.454              5.095               3.237               
H              23.085              5.193               3.224               
H              22.826              4.981               0.74                
H              20.218              5.971               1.477               
H              20.779              5.907               -0.056              
H              20.492              4.526               0.767               
H              23.697              6.902               1.81                
H              22.721              7.355               0.581               
H              22.182              7.427               2.121               
N              20.059              2.601               2.8                 
H              20.117              2.965               3.767               
H              19.2229             2.23324             2.38645             
H              28.1951             23.914              6.9241              
