220
2.xyz
C              15.985              29.076              60.441              
O              15.745              29.036              59.22               
N              16.053              27.981              61.156              
C              15.873              26.678              60.571              
C              14.437              26.461              60.137              
O              14.166              25.584              59.313              
C              16.372              25.573              61.494              
O              15.457              25.362              62.56               
H              16.246              28.132              62.173              
H              16.457              26.614              59.748              
H              16.46               24.731              60.974              
H              17.251              25.84               61.873              
H              15.317              26.22               63.052              
N              13.519              27.218              60.705              
C              12.098              27.065              60.374              
C              11.544              28.212              59.524              
O              10.344              28.325              59.369              
C              11.265              27                  61.66               
C              11.56               25.802              62.494              
S              11.04               24.277              61.844              
C              9.306               24.324              61.914              
H              13.871              27.912              61.387              
H              11.992              26.207              59.843              
H              11.446              27.834              62.198              
H              10.289              26.997              61.406              
H              12.593              25.802              62.697              
H              11.154              25.971              63.451              
H              8.977               25.247              62.162              
H              8.9                 24.08               61.021              
H              8.952               23.674              62.603              
N              12.4                29.139              59.153              
C              11.944              30.292              58.394              
C              12.082              30.021              56.901              
O              13.066              29.399              56.449              
C              12.907              31.475              58.806              
O              12.582              31.715              60.215              
C              12.506              32.773              58.11               
H              13.38               28.986              59.434              
H              10.973              30.449              58.598              
H              13.842              31.151              58.753              
H              11.538              32.734              57.855              
H              12.653              33.547              58.728              
H              13.06               32.899              57.285              
H              13.043              31.034              60.784              
N              11.085              30.444              56.138              
C              11.18               30.293              54.647              
C              11.054              31.677              54.002              
O              10.026              32.223              53.845              
C              10.056              29.365              54.197              
C              10.225              27.97               54.762              
C              9.643               26.886              53.893              
C              9.66                25.52               54.599              
N              8.551               24.648              54.064              
H              10.286              30.86               56.607              
H              12.071              29.91               54.432              
H              9.198               29.735              54.52               
H              10.073              29.311              53.209              
H              11.213              27.79               54.893              
H              9.785               27.932              55.673              
H              8.697               27.106              53.676              
H              10.178              26.805              53.058              
H              10.532              25.079              54.426              
H              9.523               25.658              55.572              
H              7.743               24.771              54.633              
H              8.354               24.919              53.126              
H              8.848               23.697              54.091              
N              12.234              32.257              53.693              
C              12.214              33.63               53.197              
C              11.712              33.752              51.763              
O              11.687              32.808              50.99               
C              13.671              34.061              53.207              
C              14.408              33.018              53.979              
C              13.601              31.798              53.929              
H              11.667              34.226              53.817              
H              14.032              34.129              52.264              
H              13.775              34.968              53.642              
H              15.33               32.877              53.574              
H              14.552              33.336              54.934              
H              13.892              31.176              53.184              
H              13.647              31.272              54.795              
N              11.346              35.004              51.46               
C              11.102              35.413              50.081              
C              12.212              36.392              49.682              
O              12.492              37.272              50.421              
C              9.742               36.228              50.067              
O              8.714               35.363              50.44               
C              9.451               36.714              48.612              
H              11.255              35.637              52.274              
H              11.165              34.615              49.493              
H              9.833               36.973              50.75               
H              8.851               36.055              48.168              
H              9.01                37.606              48.655              
H              10.313              36.781              48.118              
H              9.01                34.734              51.176              
N              12.759              36.119              48.502              
C              13.817              37.014              47.954              
C              13.249              37.667              46.704              
O              12.691              37.009              45.844              
C              15.086              36.238              47.631              
O              15.57               35.657              48.855              
C              16.204              36.991              46.979              
H              12.417              35.289              48.02               
H              14.004              37.713              48.629              
H              14.865              35.481              46.992              
H              15.844              37.772              46.455              
H              16.845              37.341              47.672              
H              16.712              36.392              46.349              
H              15.995              36.363              49.429              
N              13.373              38.994              46.673              
C              12.981              39.805              45.545              
C              14.184              40.476              44.947              
O              14.948              41.119              45.695              
C              11.924              40.851              45.969              
C              10.704              40.163              46.642              
C              11.496              41.663              44.74               
C              9.884               41.029              47.511              
H              13.786              39.397              47.554              
H              12.623              39.172              44.851              
H              12.337              41.453              46.642              
H              10.138              39.778              45.902              
H              11.065              39.386              47.175              
H              10.847              42.365              45.021              
H              12.3                42.09               44.333              
H              11.067              41.054              44.078              
H              9.509               41.799              46.984              
H              9.12                40.507              47.904              
H              10.44               41.397              48.263              
N              14.364              40.321              43.639              
C              15.488              40.918              42.947              
C              14.946              41.815              41.853              
O              14.169              41.373              41.031              
C              16.41               39.831              42.299              
C              16.81               38.771              43.331              
C              17.68               40.549              41.812              
C              17.73               37.667              42.891              
H              13.637              39.743              43.168              
H              15.944              41.512              43.605              
H              15.886              39.388              41.582              
H              17.232              39.253              44.123              
H              15.952              38.354              43.69               
H              18.292              39.882              41.397              
H              17.426              41.24               41.141              
H              18.128              40.981              42.589              
H              18.595              38.057              42.574              
H              17.907              37.05               43.659              
H              17.305              37.153              42.145              
N              15.3                43.082              41.901              
C              14.781              44.066              40.977              
C              15.944              44.917              40.415              
O              17.008              44.992              41.078              
C              13.801              45.029              41.693              
C              12.564              44.433              42.284              
C              11.83               45.335              43.301              
O              12.473              46.003              44.076              
O              10.614              45.152              43.414              
H              15.984              43.314              42.659              
H              14.313              43.618              40.214              
H              14.319              45.468              42.425              
H              13.529              45.712              41.017              
H              11.914              44.244              41.56               
H              12.8                43.602              42.77               
N              15.739              45.501              39.264              
C              16.738              46.355              38.662              
C              16.152              47.683              38.215              
O              14.993              47.732              37.852              
C              17.472              45.715              37.487              
C              17.039              45.953              36.171              
C              17.904              45.365              35.036              
C              17.038              45.35               33.744              
N              17.93               44.917              32.594              
H              14.814              45.304              38.824              
H              17.469              46.538              39.34               
H              18.467              45.993              37.595              
H              17.48               44.695              37.686              
H              16.083              45.59               36.012              
H              16.962              46.965              35.97               
H              18.669              45.947              34.884              
H              18.139              44.447              35.256              
H              16.315              44.698              33.856              
H              16.709              46.257              33.574              
H              18.716              45.525              32.557              
H              18.224              43.981              32.756              
H              17.408              44.975              31.749              
N              16.949              48.717              38.363              
C              16.609              50.057              37.836              
C              17.86               50.563              37.198              
O              18.808              50.984              37.857              
C              16.107              50.95               38.961              
C              15.642              52.299              38.539              
H              17.835              48.529              38.876              
H              15.936              49.916              37.127              
H              15.346              50.47               39.422              
H              16.857              51.056              39.631              
O              15.039              53.068              39.322              
N              15.792              52.595              37.26               
H              16.193              51.931              36.627              
H              15.503              53.492              36.914              
N              17.965              50.4                35.893              
C              19.248              50.746              35.261              
C              20.339              49.825              35.685              
O              20.143              48.584              35.707              
H              17.157              50.046              35.401              
H              19.13               50.712              34.256              
H              19.48               51.701              35.506              
N              21.469              50.372              36.085              
C              22.567              49.621              36.585              
C              22.533              49.29               38.049              
O              23.472              48.758              38.62               
C              23.933              50.173              36.172              
C              24.215              51.55               36.663              
O              23.306              52.216              37.19               
O              25.353              52.015              36.496              
H              21.479              51.427              35.998              
H              22.582              48.721              36.078              
H              24.63               49.544              36.528              
H              23.97               50.164              35.169              
N              21.438              49.649              38.739              
H              20.694              50.085              38.171              
H              21.3776             49.4922             39.7319             
H              16.1686             29.9883             60.9191             
