327
0.xyz
N              9.771               -21.395             -13.202             
C              10.399              -22.701             -12.861             
C              9.749               -23.363             -11.663             
O              9.549               -22.729             -10.627             
H              10.454              -20.673             -13.124             
H              10.332              -23.308             -13.667             
H              11.381              -22.545             -12.676             
H              9.425               -21.432             -14.136             
H              9.019               -21.218             -12.571             
N              9.417               -24.642             -11.805             
C              8.783               -25.391             -10.727             
C              7.391               -24.844             -10.429             
O              7.154               -24.274             -9.363              
C              9.647               -25.339             -9.466              
O              11.021              -25.482             -9.781              
H              9.644               -25.052             -12.731             
H              8.681               -26.346             -11.027             
H              9.507               -24.461             -9.017              
H              9.374               -26.081             -8.86               
H              11.118              -25.728             -10.745             
N              6.446               -25.01              -11.371             
C              5.07                -24.529             -11.204             
C              4.351               -25.222             -10.051             
O              4.024               -26.405             -10.132             
C              4.399               -24.875             -12.539             
C              5.239               -25.958             -13.122             
C              6.643               -25.679             -12.669             
H              5.058               -23.524             -11.08              
H              3.457               -25.19              -12.387             
H              4.376               -24.071             -13.14              
H              4.93                -26.86              -12.796             
H              5.178               -25.95              -14.128             
H              7.166               -26.522             -12.552             
H              7.122               -25.074             -13.306             
N              4.108               -24.475             -8.979              
C              3.427               -25.016             -7.808              
C              2.855               -23.901             -6.94               
O              3.303               -22.757             -7.007              
C              4.376               -25.879             -6.955              
C              4.67                -27.199             -7.651              
C              5.664               -25.125             -6.66               
H              4.438               -23.493             -9.047              
H              2.659               -25.586             -8.127              
H              3.906               -26.096             -6.105              
H              5.325               -27.048             -8.392              
H              5.056               -27.845             -6.993              
H              3.823               -27.575             -8.027              
H              6.392               -25.78              -6.458              
H              5.916               -24.578             -7.458              
H              5.523               -24.526             -5.872              
N              1.862               -24.243             -6.125              
C              1.227               -23.271             -5.243              
C              1.913               -23.237             -3.881              
O              1.253               -23.186             -2.844              
C              -0.256              -23.602             -5.07               
C              -0.49               -25.074             -4.789              
O              -0.145              -25.905             -5.655              
O              -1.016              -25.395             -3.703              
H              1.584               -25.242             -6.171              
H              1.353               -22.362             -5.659              
H              -0.602              -23.072             -4.306              
H              -0.726              -23.358             -5.908              
N              3.242               -23.265             -3.89               
C              4.015               -23.236             -2.653              
C              4.002               -21.841             -2.038              
O              3.649               -21.67              -0.871              
C              5.456               -23.678             -2.916              
O              6.021               -24.285             -1.767              
H              3.672               -23.308             -4.833              
H              3.582               -23.866             -1.999              
H              5.459               -24.334             -3.664              
H              5.997               -22.878             -3.159              
H              6.397               -23.579             -1.168              
N              4.391               -20.848             -2.829              
C              4.425               -19.467             -2.363              
C              4.016               -18.507             -3.476              
O              4.804               -17.664             -3.903              
C              5.823               -19.112             -1.855              
C              6.916               -19.569             -2.803              
H              4.663               -21.135             -3.789              
H              3.737               -19.381             -1.634              
H              5.881               -18.123             -1.757              
H              5.96                -19.555             -0.975              
O              6.642               -19.989             -3.927              
N              8.162               -19.491             -2.35               
H              8.336               -19.15              -1.425              
H              8.926               -19.772             -2.93               
N              2.779               -18.644             -3.943              
C              2.265               -17.79              -5.007              
C              0.862               -17.293             -4.674              
O              0.008               -18.063             -4.236              
C              2.248               -18.549             -6.336              
C              3.511               -18.327             -7.146              
O              4.596               -18.226             -6.536              
O              3.414               -18.255             -8.389              
H              2.223               -19.396             -3.493              
H              2.86                -16.98              -5.054              
H              2.163               -19.517             -6.135              
H              1.47                -18.23              -6.862              
N              0.633               -16.001             -4.886              
C              -0.667              -15.401             -4.607              
C              -1.26               -14.784             -5.869              
O              -2.456              -14.913             -6.133              
C              -0.537              -14.336             -3.516              
C              -0.32               -14.88              -2.103              
C              -0.255              -13.741             -1.099              
C              -1.424              -15.859             -1.733              
H              1.442               -15.469             -5.259              
H              -1.29               -16.121             -4.283              
H              0.243               -13.765             -3.738              
H              -1.373              -13.805             -3.506              
H              0.538               -15.393             -2.081              
H              -1.113              -13.226             -1.12               
H              -0.113              -14.111             -0.18               
H              0.504               -13.131             -1.332              
H              -1.424              -16.624             -2.378              
H              -1.268              -16.205             -0.807              
H              -2.31               -15.394             -1.769              
N              -0.416              -14.113             -6.647              
C              -0.875              -13.486             -7.872              
C              -1.144              -12.002             -7.7                
O              -0.208              -11.211             -7.584              
H              0.56                -14.081             -6.31               
H              -0.179              -13.616             -8.599              
H              -1.724              -13.944             -8.188              
N              -2.423              -11.586             -7.68               
C              -2.79               -10.177             -7.52               
C              -2.656              -9.701              -6.078              
O              -3.611              -9.196              -5.49               
C              -4.252              -10.147             -7.961              
C              -4.769              -11.508             -7.643              
C              -3.609              -12.454             -7.814              
H              -2.241              -9.594              -8.141              
H              -4.76               -9.442              -7.457              
H              -4.323              -9.955              -8.944              
H              -5.12               -11.542             -6.697              
H              -5.525              -11.754             -8.265              
H              -3.606              -13.162             -7.106              
H              -3.623              -12.892             -8.716              
N              -1.462              -9.863              -5.516              
C              -1.199              -9.447              -4.144              
C              -2.16               -10.125             -3.17               
O              -3.127              -10.764             -3.582              
C              -1.318              -7.927              -4.017              
C              -0.732              -7.131              -5.183              
C              -0.877              -5.638              -4.935              
C              0.729               -7.498              -5.396              
H              -0.748              -10.303             -6.128              
H              -0.26               -9.716              -3.9                
H              -2.282              -7.7                -3.957              
H              -0.838              -7.65               -3.196              
H              -1.218              -7.377              -6.021              
H              -0.392              -5.389              -4.096              
H              -0.489              -5.131              -5.706              
H              -1.846              -5.407              -4.839              
H              0.802               -8.475              -5.6                
H              1.099               -6.97               -6.161              
H              1.25                -7.292              -4.567              
N              -1.902              -9.991              -1.857              
C              -2.744              -10.59              -0.816              
C              -4.114              -9.921              -0.734              
O              -4.398              -8.979              -1.474              
C              -1.95               -10.357             0.48                
C              -0.59               -9.917              0.048               
C              -0.774              -9.249              -1.28               
H              -2.842              -11.585             -0.966              
H              -2.396              -9.65               1.042               
H              -1.901              -11.206             1.019               
H              -0.197              -9.278              0.722               
H              0.027               -10.711             -0.029              
H              -1.004              -8.283              -1.177              
H              0.039               -9.341              -1.854              
N              -4.987              -10.399             0.17                
C              -6.334              -9.838              0.339               
C              -6.311              -8.462              0.995               
O              -5.63               -8.253              1.999               
C              -7.026              -10.854             1.249               
C              -5.92               -11.481             2.022               
C              -4.736              -11.521             1.095               
H              -6.817              -9.803              -0.55               
H              -7.678              -10.394             1.859               
H              -7.52               -11.538             0.704               
H              -5.71               -10.939             2.846               
H              -6.175              -12.411             2.316               
H              -3.878              -11.381             1.589               
H              -4.692              -12.386             0.592               
N              -7.059              -7.524              0.421               
C              -7.106              -6.179              0.964               
C              -5.94               -5.316              0.511               
O              -5.909              -4.116              0.784               
H              -7.583              -7.83               -0.415              
H              -7.976              -5.733              0.687               
H              -7.11               -6.225              1.979               
N              -4.976              -5.925              -0.175              
C              -3.805              -5.202              -0.656              
C              -4.021              -4.678              -2.072              
O              -4.967              -5.069              -2.756              
C              -2.577              -6.108              -0.604              
C              -2.046              -6.289              0.778               
C              -2.459              -7.199              1.707               
C              -1.005              -5.529              1.391               
N              -1.726              -7.056              2.86                
C              -0.828              -6.036              2.688               
C              -0.2                -4.469              0.964               
C              0.119               -5.519              3.563               
C              0.74                -3.957              1.834               
C              0.894               -4.482              3.121               
H              -5.129              -6.94               -0.334              
H              -3.668              -4.405              -0.056              
H              -2.824              -7.004              -0.948              
H              -1.856              -5.704              -1.15               
H              -3.185              -7.87               1.572               
H              -1.829              -7.604              3.688               
H              -0.3                -4.088              0.047               
H              0.22                -5.904              4.488               
H              1.317               -3.2                1.538               
H              1.588               -4.085              3.723               
N              -3.141              -3.776              -2.497              
C              -3.231              -3.177              -3.822              
C              -1.848              -2.794              -4.341              
O              -0.989              -2.358              -3.576              
C              -4.124              -1.934              -3.769              
C              -5.256              -1.952              -4.784              
C              -4.829              -1.427              -6.141              
O              -3.68               -1.698              -6.548              
O              -5.646              -0.747              -6.799              
H              -2.395              -3.54               -1.811              
H              -3.659              -3.827              -4.461              
H              -4.526              -1.893              -2.874              
H              -3.561              -1.153              -3.963              
H              -5.548              -2.882              -4.903              
H              -5.977              -1.372              -4.454              
N              -1.638              -2.948              -5.644              
C              -0.359              -2.598              -6.249              
C              -0.401              -1.174              -6.791              
O              -0.97               -0.92               -7.853              
C              -0.012              -3.576              -7.374              
C              -0.96               -3.501              -8.559              
C              -1.163              -4.845              -9.231              
O              -0.306              -5.735              -9.049              
O              -2.18               -5.008              -9.939              
H              -2.441              -3.328              -6.176              
H              0.373               -2.674              -5.565              
H              0.888               -3.352              -7.697              
H              -0.063              -4.485              -7.007              
H              -1.836              -3.195              -8.235              
H              -0.575              -2.891              -9.226              
N              0.201               -0.246              -6.056              
C              0.224               1.154               -6.465              
C              1.603               1.548               -6.981              
O              2.624               1.097               -6.462              
C              -0.176              2.056               -5.298              
C              -1.658              2.388               -5.263              
C              -1.956              3.684               -6                  
N              -1.904              3.512               -7.449              
C              -2.892              2.986               -8.165              
N              -4.007              2.588               -7.568              
N              -2.768              2.859               -9.479              
H              0.643               -0.596              -5.185              
H              -0.446              1.288               -7.205              
H              0.057               1.591               -4.45               
H              0.33                2.909               -5.375              
H              -2.174              1.656               -5.7                
H              -1.953              2.495               -4.317              
H              -2.868              3.987               -5.737              
H              -1.277              4.359               -5.723              
H              -1.075              3.808               -7.931              
H              -4.134              2.692               -6.586              
H              -4.743              2.172               -8.118              
H              -1.931              3.181               -9.93               
H              -3.499              2.448               -10.018             
N              1.622               2.391               -8.007              
C              2.875               2.847               -8.599              
C              3.433               4.052               -7.85               
O              2.746               5.058               -7.671              
C              2.693               3.22                -10.081             
O              1.448               3.906               -10.265             
C              2.727               1.979               -10.96              
H              0.687               2.691               -8.344              
H              3.548               2.099               -8.54               
H              3.448               3.852               -10.357             
H              3.38                1.316               -10.587             
H              1.817               1.56                -10.993             
H              3.008               2.228               -11.89              
H              0.687               3.35                -9.914              
N              4.685               3.943               -7.417              
C              5.339               5.024               -6.689              
C              5.797               6.122               -7.644              
O              5.969               5.887               -8.84               
C              6.534               4.483               -5.902              
C              7.006               5.406               -4.821              
N              8.2                 6.076               -4.923              
C              6.41                5.736               -3.649              
C              8.305               6.794               -3.819              
N              7.245               6.621               -3.017              
H              5.146               3.04                -7.638              
H              4.676               5.423               -6.046              
H              6.279               3.607               -5.48               
H              7.297               4.323               -6.536              
H              5.537               5.4                 -3.313              
H              9.083               7.402               -3.596              
H              7.104               7.053               -2.143              
N              5.991               7.322               -7.106              
C              6.43                8.457               -7.909              
C              7.733               8.15                -8.64               
O              8.054               8.783               -9.646              
C              6.625               9.714               -7.041              
O              6.046               9.513               -5.747              
C              5.993               10.929              -7.702              
H              5.806               7.378               -6.086              
H              5.721               8.656               -8.598              
H              7.627               9.878               -6.92               
H              5.981               10.807              -8.697              
H              5.052               11.044              -7.374              
H              6.521               11.751              -7.479              
H              6.452               8.707               -5.303              
N              8.483               7.177               -8.129              
C              9.752               6.791               -8.737              
C              10.718              6.284               -7.665              
C              11.392              7.413               -6.911              
O              10.98               8.578               -7.095              
O              12.333              7.134               -6.139              
H              8.094               6.727               -7.279              
H              10.121              7.605               -9.204              
H              10.201              5.733               -7.021              
H              11.414              5.737               -8.113              
H              9.61053             6.01902             -9.50611            
