366
0.xyz
N              36.996              19.258              3.069               
C              36.957              20.352              4.09                
C              36.42               19.868              5.427               
O              35.364              19.243              5.498               
C              36.092              21.531              3.587               
C              36.529              22.076              2.22                
C              35.463              23.008              1.653               
C              37.876              22.783              2.343               
H              37.388              19.616              2.226               
H              37.901              20.683              4.215               
H              35.167              21.207              3.498               
H              36.171              22.261              4.24                
H              36.666              21.31               1.595               
H              35.324              23.774              2.28                
H              35.762              23.354              0.764               
H              34.606              22.506              1.544               
H              38.563              22.135              2.673               
H              38.15               23.134              1.448               
H              37.795              23.542              2.989               
H              37.558              18.512              3.415               
H              36.068              18.937              2.903               
N              37.156              20.164              6.493               
C              36.753              19.78               7.845               
C              35.461              20.481              8.293               
O              34.662              19.923              9.047               
C              37.888              20.097              8.825               
C              39.071              19.133              8.701               
C              40.224              19.471              9.629               
H              38.032              20.686              6.286               
H              36.574              18.785              7.847               
H              38.222              21.018              8.645               
H              37.537              20.035              9.756               
H              38.749              18.209              8.914               
H              39.402              19.158              7.756               
O              40.054              20.109              10.678              
N              41.415              19.019              9.255               
H              42.245              19.216              9.819               
H              41.492              18.474              8.402               
N              35.248              21.706              7.809               
C              34.079              22.48               8.199               
C              32.756              21.84               7.79                
O              31.733              22.108              8.401               
C              34.171              23.909              7.624               
O              34.346              23.879              6.232               
H              35.971              22.045              7.149               
H              34.081              22.562              9.213               
H              33.327              24.388              7.845               
H              34.947              24.365              8.048               
H              35.306              23.697              6.014               
N              32.779              20.983              6.781               
C              31.547              20.371              6.333               
C              30.843              19.601              7.461               
O              29.628              19.707              7.6                 
C              31.781              19.47               5.117               
O              32.263              20.266              4.015               
C              30.493              18.754              4.744               
H              33.703              20.803              6.369               
H              30.917              21.096              6.015               
H              32.499              18.782              5.343               
H              29.708              19.235              5.142               
H              30.392              18.731              3.747               
H              30.512              17.814              5.093               
H              32.972              20.902              4.333               
N              31.604              18.859              8.266               
C              31.029              18.101              9.395               
C              30.289              19.051              10.343              
O              29.267              18.69               10.952              
C              32.119              17.428              10.26               
C              32.922              16.36               9.563               
C              34.254              16.6                9.216               
C              32.369              15.098              9.305               
C              35.035              15.592              8.617               
C              33.138              14.089              8.711               
C              34.469              14.339              8.368               
H              32.613              18.857              8.039               
H              30.343              17.485              9.008               
H              32.744              18.14               10.556              
H              31.665              17.013              11.039              
H              34.663              17.486              9.39                
H              31.421              14.917              9.547               
H              35.985              15.784              8.375               
H              32.724              13.186              8.533               
H              35.02               13.623              7.944               
N              30.832              20.255              10.517              
C              30.22               21.212              11.428              
C              28.909              21.786              10.89               
O              27.917              21.841              11.625              
C              31.197              22.369              11.77               
C              30.563              23.337              12.722              
C              32.488              21.796              12.38               
H              31.685              20.438              9.972               
H              30.012              20.733              12.297              
H              31.383              22.855              10.919              
H              31.266              23.913              13.148              
H              29.913              23.927              12.234              
H              30.071              22.841              13.443              
H              32.526              20.818              12.192              
H              33.271              22.255              11.967              
H              32.477              21.955              13.364              
N              28.897              22.2                9.618               
C              27.689              22.76               9.03                
C              26.585              21.706              9.007               
O              25.426              22.025              9.259               
C              27.971              23.273              7.612               
C              28.648              24.607              7.602               
C              27.949              25.739              7.998               
C              30.017              24.714              7.299               
C              28.582              26.983              8.115               
C              30.665              25.951              7.409               
C              29.941              27.085              7.82                
H              29.79               22.089              9.114               
H              27.376              23.492              9.639               
H              28.563              22.621              7.171               
H              27.107              23.36               7.148               
H              26.975              25.675              8.207               
H              30.522              23.913              7.009               
H              28.058              27.781              8.406               
H              31.645              26.026              7.193               
H              30.404              27.966              7.901               
N              26.958              20.46               8.71                
C              25.982              19.351              8.667               
C              25.394              19.113              10.05               
O              24.204              18.869              10.18               
C              26.627              18.071              8.121               
C              26.909              18.182              6.631               
C              27.529              16.931              6.01                
O              28.033              16.055              6.742               
O              27.53               16.85               4.767               
H              27.965              20.335              8.516               
H              25.251              19.58               8.021               
H              27.478              17.949              8.578               
H              25.998              17.341              8.253               
H              26.054              18.347              6.164               
H              27.546              18.925              6.488               
N              26.222              19.224              11.087              
C              25.743              19.039              12.449              
C              24.829              20.201              12.845              
O              23.828              20.001              13.525              
C              26.944              18.914              13.393              
C              26.629              18.826              14.889              
C              25.78               17.62               15.243              
O              25.766              16.653              14.469              
O              25.138              17.639              16.303              
H              27.201              19.446              10.844              
H              25.233              18.178              12.518              
H              27.435              18.087              13.147              
H              27.517              19.713              13.26               
H              27.479              18.747              15.374              
H              26.127              19.631              15.143              
N              25.144              21.424              12.409              
C              24.271              22.545              12.76               
C              22.911              22.268              12.122              
O              21.878              22.499              12.739              
C              24.848              23.907              12.249              
C              26.114              24.256              13.042              
C              23.825              25.028              12.422              
C              26.906              25.469              12.513              
H              25.989              21.498              11.849              
H              24.139              22.5                13.74               
H              25.097              23.786              11.301              
H              25.857              24.441              13.992              
H              26.724              23.461              13.032              
H              24.21               25.883              12.081              
H              23                  24.805              11.908              
H              23.6                25.124              13.389              
H              26.316              26.269              12.539              
H              27.701              25.607              13.095              
H              27.19               25.279              11.579              
N              22.93               21.767              10.891              
C              21.707              21.437              10.172              
C              20.893              20.407              10.939              
O              19.691              20.6                11.138              
H              23.882              21.633              10.492              
H              21.156              22.27               10.045              
H              21.939              21.07               9.264               
N              21.535              19.316              11.364              
C              20.842              18.277              12.138              
C              20.249              18.854              13.434              
O              19.12               18.513              13.818              
C              21.789              17.129              12.531              
C              22.669              16.569              11.442              
C              23.518              15.42               11.996              
N              24.83               15.29               11.343              
C              25.015              14.993              10.058              
N              23.969              14.796              9.264               
N              26.249              14.871              9.565               
H              22.534              19.267              11.108              
H              20.091              17.906              11.582              
H              22.381              17.465              13.275              
H              21.222              16.379              12.896              
H              22.113              16.207              10.707              
H              23.287              17.268              11.111              
H              23.654              15.583              12.974              
H              23.004              14.571              11.869              
H              25.649              15.437              11.914              
H              23.038              14.885              9.605               
H              24.119              14.553              8.297               
H              27.032              15.026              10.172              
H              26.387              14.632              8.612               
N              20.994              19.72               14.121              
C              20.482              20.282              15.369              
C              19.323              21.242              15.18               
O              18.416              21.272              16.008              
C              21.587              20.958              16.164              
C              22.704              19.99               16.509              
C              23.592              20.53               17.591              
N              24.626              19.563              17.96               
C              25.192              19.505              19.161              
N              24.819              20.356              20.111              
N              26.135              18.602              19.413              
H              21.907              19.943              13.717              
H              20.174              19.514              15.965              
H              21.968              21.686              15.617              
H              21.205              21.3                17.007              
H              22.307              19.128              16.822              
H              23.259              19.825              15.694              
H              24.029              21.361              17.261              
H              23.034              20.729              18.391              
H              24.925              18.905              17.263              
H              24.105              21.03               19.951              
H              25.268              20.318              21.014              
H              26.399              17.954              18.694              
H              26.573              18.568              20.306              
N              19.334              22.014              14.093              
C              18.224              22.945              13.848              
C              16.889              22.218              13.734              
O              15.857              22.771              14.099              
C              18.457              23.753              12.573              
C              19.573              24.776              12.677              
C              19.693              25.503              11.33               
C              19.288              25.745              13.805              
H              20.142              21.907              13.475              
H              18.173              23.588              14.624              
H              18.695              23.119              11.851              
H              17.621              24.237              12.363              
H              20.429              24.317              12.873              
H              18.828              25.958              11.125              
H              20.425              26.179              11.387              
H              19.902              24.838              10.616              
H              19.221              25.246              14.671              
H              20.028              26.418              13.869              
H              18.424              26.221              13.632              
N              16.907              20.992              13.212              
C              15.686              20.189              13.081              
C              14.964              20.102              14.435              
O              13.731              20.027              14.482              
C              16.014              18.759              12.615              
C              16.706              18.632              11.268              
C              15.743              18.76               10.088              
C              15.187              20.168              9.939               
N              14.304              20.307              8.749               
H              17.842              20.659              12.911              
H              15.075              20.631              12.422              
H              16.603              18.336              13.314              
H              15.149              18.243              12.577              
H              17.405              19.351              11.189              
H              17.16               17.737              11.214              
H              16.231              18.52               9.251               
H              14.981              18.13               10.227              
H              14.664              20.4                10.766              
H              15.955              20.814              9.857               
H              14.569              21.121              8.233               
H              14.398              19.498              8.17                
H              13.355              20.395              9.049               
N              15.733              20.116              15.527              
C              15.164              20.022              16.876              
C              15.035              21.345              17.641              
O              14.042              21.563              18.335              
C              15.983              19.045              17.729              
C              16.32               17.759              16.99               
O              15.486              17.298              16.178              
O              17.415              17.201              17.229              
H              16.75               20.198              15.342              
H              14.216              19.649              16.773              
H              16.829              19.497              17.985              
H              15.45               18.82               18.535              
N              16.026              22.222              17.522              
C              16.02               23.498              18.233              
C              15.827              24.707              17.319              
O              15.804              25.844              17.793              
C              17.356              23.723              18.972              
C              18.459              24.046              17.957              
C              17.727              22.48               19.738              
C              19.782              24.465              18.553              
H              16.796              21.926              16.888              
H              15.216              23.474              18.851              
H              17.248              24.507              19.568              
H              18.602              23.234              17.382              
H              18.125              24.785              17.362              
H              18.591              22.623              20.224              
H              17.011              22.263              20.403              
H              17.831              21.709              19.108              
H              20.134              23.73               19.131              
H              20.433              24.653              17.818              
H              19.653              25.289              19.104              
N              15.712              24.456              16.018              
C              15.567              25.531              15.042              
C              14.586              26.654              15.33               
O              14.915              27.832              15.164              
H              15.734              23.45               15.764              
H              16.507              25.947              14.871              
H              15.325              25.107              14.121              
N              13.362              26.329              15.76               
C              12.381              27.382              16.052              
C              12.861              28.386              17.093              
O              12.723              29.598              16.917              
C              11.163              26.592              16.533              
C              11.267              25.328              15.733              
C              12.746              24.994              15.849              
H              12.108              27.858              15.195              
H              11.225              26.403              17.507              
H              10.321              27.076              16.326              
H              10.713              24.611              16.133              
H              11.017              25.487              14.789              
H              12.949              24.568              16.721              
H              13.043              24.416              15.098              
N              13.417              27.884              18.19               
C              13.896              28.757              19.251              
C              15.063              29.644              18.79               
O              15.185              30.795              19.214              
C              14.329              27.917              20.461              
C              13.256              26.953              21.005              
C              13.374              25.522              20.466              
O              13.009              25.272              19.293              
O              13.839              24.64               21.226              
H              13.477              26.853              18.221              
H              13.142              29.348              19.575              
H              15.1                27.368              20.187              
H              14.561              28.536              21.192              
H              13.356              26.909              21.983              
H              12.374              27.297              20.737              
N              15.928              29.097              17.939              
C              17.074              29.861              17.435              
C              16.606              30.967              16.488              
O              17.079              32.101              16.563              
C              18.081              28.947              16.688              
C              19.261              29.796              16.158              
C              18.591              27.845              17.637              
H              15.73               28.121              17.673              
H              17.527              30.295              18.218              
H              17.623              28.575              15.895              
H              19.055              30.759              16.305              
H              20.087              29.543              16.653              
H              19.376              29.615              15.186              
H              17.829              27.522              18.192              
H              18.96               27.097              17.091              
H              19.303              28.228              18.22               
N              15.673              30.621              15.601              
C              15.103              31.572              14.653              
C              14.528              32.788              15.365              
O              14.796              33.917              14.964              
C              14.02               30.895              13.787              
C              13.213              31.935              13.001              
C              14.68               29.916              12.851              
H              15.389              29.618              15.644              
H              15.842              31.889              14.044              
H              13.381              30.439              14.4                
H              12.248              31.68               13.014              
H              13.331              32.831              13.425              
H              13.542              31.962              12.059              
H              14.509              30.189              11.902              
H              15.668              29.903              13.018              
H              14.306              28.999              13.004              
N              13.742              32.577              16.421              
H              13.573              31.594              16.66               
H              13.3562             33.3639             16.9289             
