374
0.xyz
N              1.039               18.894              -2.865              
C              1.336               17.507              -3.165              
C              0.574               16.601              -2.209              
O              -0.159              17.077              -1.347              
C              2.839               17.273              -3.051              
C              3.156               15.819              -3.384              
C              3.296               17.579              -1.628              
C              4.657               15.584              -3.272              
H              1.515               19.498              -3.51               
H              0.971               17.328              -4.08               
H              3.296               17.848              -3.719              
H              2.693               15.236              -2.746              
H              2.877               15.638              -4.308              
H              4.28                17.427              -1.556              
H              3.088               18.531              -1.41               
H              2.818               16.979              -0.99               
H              4.95                15.785              -2.34               
H              4.855               14.631              -3.491              
H              5.13                16.184              -3.913              
H              0.052               19.061              -2.937              
H              1.337               19.119              -1.933              
N              0.748               15.286              -2.365              
C              0.078               14.319              -1.518              
C              0.473               12.908              -1.934              
O              1.251               12.73               -2.868              
C              -1.431              14.514              -1.622              
C              -2.136              13.508              -0.717              
C              -1.793              15.931              -1.189              
H              1.397               15.027              -3.136              
H              0.384               14.458              -0.573              
H              -1.707              14.304              -2.551              
H              -3.124              13.647              -0.772              
H              -1.912              12.58               -1.014              
H              -1.832              13.639              0.226               
H              -1.792              16.529              -1.989              
H              -2.701              15.925              -0.773              
H              -1.119              16.254              -0.525              
N              -0.045              11.866              -1.269              
C              0.015               10.449              -1.696              
C              -1.37               9.802               -1.512              
O              -2.257              10.397              -0.903              
C              1.081               9.655               -0.901              
S              2.775               9.614               -1.561              
H              -0.527              12.149              -0.365              
H              0.241               10.427              -2.666              
H              1.113               10.045              0.032               
H              0.748               8.702               -0.822              
N              -1.567              8.567               -1.999              
C              -2.716              7.722               -1.618              
C              -2.485              7.077               -0.241              
O              -1.344              6.938               0.201               
C              -2.926              6.604               -2.662              
C              -3.466              7.067               -3.994              
N              -2.902              6.833               -5.237              
C              -4.531              7.901               -4.17               
C              -3.623              7.518               -6.149              
N              -4.617              8.182               -5.515              
H              -0.835              8.252               -2.674              
H              -3.529              8.306               -1.558              
H              -2.044              6.143               -2.825              
H              -3.568              5.925               -2.283              
H              -5.133              8.244               -3.455              
H              -3.454              7.536               -7.122              
H              -5.285              8.764               -5.957              
N              -3.563              6.589               0.379               
C              -3.526              5.65                1.504               
C              -4.312              4.376               1.177               
O              -5.177              4.383               0.305               
C              -4.122              6.256               2.79                
O              -5.525              6.274               2.683               
C              -3.619              7.665               3.109               
H              -4.474              6.948               -0.022              
H              -2.569              5.394               1.674               
H              -3.858              5.663               3.578               
H              -2.636              7.636               3.299               
H              -3.788              8.267               2.327               
H              -4.101              8.02                3.911               
H              -5.822              6.839               1.9                 
N              -4.071              3.322               1.957               
C              -5.09               2.378               2.437               
C              -5.272              1.119               1.558               
O              -4.056              0.669               1.01                
C              -6.241              1.33                0.394               
H              -3.048              3.215               2.213               
H              -5.958              2.851               2.489               
H              -5.665              0.369               2.15                
H              -5.731              1.609               -0.422              
H              -6.729              0.477               0.204               
H              -6.902              2.044               0.632               
H              -3.956              -0.33               1.123               
C              10.359              16.159              3.565               
O              11.163              16.719              4.31                
N              10.487              14.899              3.145               
C              11.444              13.893              3.593               
C              11.172              12.614              2.807               
O              11.998              12.197              1.996               
H              9.759               14.662              2.377               
H              12.369              14.203              3.41                
H              11.32               13.718              4.563               
N              9.958               12.066              2.952               
C              9.337               11.184              1.955               
C              9.179               11.885              0.593               
O              9.09                13.114              0.504               
C              7.979               10.67               2.468               
C              8.111               9.669               3.631               
C              8.575               10.287              4.963               
O              9.194               9.536               5.751               
O              8.31                11.49               5.17                
H              9.482               12.324              3.851               
H              9.901               10.357              1.838               
H              7.474               11.438              2.8                 
H              7.536               10.205              1.732               
H              7.225               9.266               3.789               
H              8.78                8.989               3.377               
N              9.192               11.104              -0.498              
C              9.228               11.597              -1.888              
C              8.313               10.811              -2.847              
O              8.122               11.238              -3.984              
C              10.67               11.553              -2.447              
C              11.801              12.055              -1.551              
H              9.174               10.072              -0.273              
H              8.884               12.55               -1.872              
H              10.873              10.59               -2.702              
H              10.684              12.095              -3.307              
O              12.904              11.534              -1.595              
N              11.59               13.053              -0.722              
H              10.653              13.455              -0.709              
H              12.296              13.404              -0.136              
N              7.785               9.657               -2.421              
C              7.017               8.716               -3.233              
C              5.989               7.967               -2.369              
O              5.822               8.283               -1.186              
C              7.988               7.755               -3.951              
C              8.793               6.835               -3.007              
C              8.892               5.428               -3.587              
C              10.213              7.346               -2.761              
H              7.982               9.474               -1.389              
H              6.518               9.229               -3.937              
H              7.456               7.174               -4.545              
H              8.636               8.299               -4.455              
H              8.33                6.801               -2.124              
H              9.352               5.465               -4.474              
H              9.415               4.847               -2.964              
H              7.974               5.05                -3.703              
H              10.171              8.254               -2.345              
H              10.689              6.718               -2.147              
H              10.701              7.398               -3.632              
N              5.321               6.96                -2.946              
C              4.329               6.145               -2.246              
C              4.608               4.628               -2.413              
O              5.205               4.21                -3.413              
C              2.917               6.542               -2.726              
S              2.552               8.258               -3.248              
H              5.574               6.806               -3.952              
H              4.378               6.354               -1.262              
H              2.677               5.92                -3.506              
H              2.262               6.299               -1.973              
N              4.172               3.795               -1.449              
C              4.557               2.371               -1.314              
C              3.361               1.387               -1.216              
O              2.221               1.826               -1.081              
C              5.493               2.223               -0.098              
C              4.75                2.26                1.227               
C              4.121               1.097               1.689               
C              4.555               3.465               1.925               
C              3.184               1.165               2.726               
C              3.685               3.521               3.031               
C              2.932               2.377               3.381               
O              1.911               2.438               4.275               
H              3.507               4.257               -0.77               
H              5.098               2.115               -2.135              
H              5.959               1.352               -0.171              
H              6.14                2.973               -0.113              
H              4.339               0.219               1.28                
H              5.033               4.283               1.639               
H              2.688               0.338               3.005               
H              3.598               4.353               3.561               
H              1.182               1.812               3.996               
N              3.623               0.06                -1.24               
C              2.647               -1.05               -1.113              
C              2.97                -2.08               0                   
O              3.554               -3.111              -0.298              
C              2.56                -1.821              -2.451              
C              2.226               -1.008              -3.701              
C              2.066               -1.978              -4.884              
N              2.107               -1.254              -6.161              
C              3.198               -0.758              -6.722              
N              4.405               -1.128              -6.374              
N              3.103               0.168               -7.647              
H              4.667               -0.14               -1.367              
H              1.732               -0.649              -0.916              
H              3.447               -2.271              -2.603              
H              1.856               -2.533              -2.348              
H              1.374               -0.539              -3.574              
H              2.966               -0.397              -3.907              
H              2.812               -2.626              -4.848              
H              1.191               -2.43               -4.788              
H              1.227               -1.127              -6.647              
H              4.528               -1.833              -5.665              
H              5.211               -0.72               -6.805              
H              2.198               0.49                -7.947              
H              3.925               0.561               -8.063              
N              2.572               -1.878              1.267               
C              2.735               -2.913              2.323               
C              1.752               -4.067              2.118               
O              0.59                -3.929              2.5                 
C              2.546               -2.343              3.745               
C              3.839               -1.774              4.343               
C              3.54                -0.982              5.623               
C              4.813               -0.452              6.286               
N              5.533               -1.508              7.036               
H              2.146               -0.952              1.448               
H              3.673               -3.269              2.272               
H              1.877               -1.613              3.699               
H              2.227               -3.077              4.332               
H              4.45                -2.525              4.567               
H              4.262               -1.166              3.681               
H              2.959               -0.208              5.39                
H              3.074               -1.581              6.267               
H              5.414               -0.08               5.572               
H              4.561               0.291               6.914               
H              4.973               -1.812              7.807               
H              5.714               -2.284              6.431               
H              6.4                 -1.144              7.378               
N              2.201               -5.183              1.53                
C              1.407               -6.418              1.443               
C              1.455               -7.233              2.746               
O              2.524               -7.667              3.173               
C              1.871               -7.292              0.268               
C              0.94                -7.124              -0.936              
S              1.154               -8.341              -2.257              
C              -0.033              -7.663              -3.444              
H              3.165               -5.102              1.137               
H              0.446               -6.16               1.276               
H              2.787               -7.018              -0.001              
H              1.859               -8.246              0.546               
H              -0.036              -7.132              -0.586              
H              1.064               -6.162              -1.303              
H              0.284               -7.857              -4.37               
H              -0.923              -8.089              -3.294              
H              -0.102              -6.677              -3.309              
N              0.282               -7.492              3.336               
C              0.095               -8.419              4.462               
C              -1.331              -9.016              4.496               
O              -1.851              -9.449              3.462               
C              0.577               -7.759              5.771               
C              0.063               -6.402              6.167               
C              -1.217              -5.956              6.102               
C              0.823               -5.318              6.788               
N              -1.289              -4.69               6.648               
C              -0.069              -4.257              7.109               
C              2.176               -5.138              7.16                
C              0.337               -3.097              7.781               
C              2.598               -3.991              7.854               
C              1.681               -2.972              8.175               
H              -0.526              -6.958              2.912               
H              0.735               -9.187              4.337               
H              0.36                -8.39               6.542               
H              1.593               -7.687              5.734               
H              -1.989              -6.454              5.723               
H              -2.144              -4.142              6.703               
H              2.858               -5.845              6.926               
H              -0.326              -2.364              7.977               
H              3.547               -3.908              8.113               
H              1.975               -2.178              8.671               
N              -1.96               -9.137              5.672               
C              -3.356              -9.552              5.82                
C              -4.06               -8.757              6.929               
O              -3.405              -8.08               7.72                
C              -3.442              -11.065             6.087               
S              -4.8                -11.858             5.191               
H              -1.35               -8.903              6.499               
H              -3.835              -9.366              4.955               
H              -2.591              -11.477             5.795               
H              -3.588              -11.197             7.058               
N              -5.387              -8.869              6.988               
C              -6.213              -8.375              8.094               
C              -6.057              -9.295              9.326               
O              -5.673              -10.458             9.189               
C              -7.67               -8.325              7.581               
C              -8.603              -7.434              8.404               
O              -9.292              -6.596              7.786               
O              -8.655              -7.64               9.637               
H              -5.806              -9.356              6.15                
H              -5.855              -7.479              8.359               
H              -7.65               -7.983              6.644               
H              -8.028              -9.256              7.592               
N              -6.458              -8.836              10.514              
C              -6.724              -9.702              11.665              
C              -7.87               -10.692             11.378              
O              -7.844              -11.818             11.864              
C              -7.042              -8.819              12.876              
H              -6.567              -7.794              10.553              
H              -5.893              -10.234             11.872              
H              -7.583              -9.342              13.532              
H              -6.189              -8.526              13.303              
H              -7.559              -8.02               12.574              
N              -8.838              -10.305             10.53               
C              -9.85               -11.203             9.966               
C              -9.306              -12.157             8.876               
O              -10.011             -13.088             8.5                 
C              -10.993             -10.359             9.371               
C              -11.759             -9.497              10.361              
C              -12.529             -10.102             11.375              
C              -11.738             -8.092              10.256              
C              -13.26              -9.31               12.28               
C              -12.462             -7.299              11.163              
C              -13.226             -7.908              12.177              
H              -8.805              -9.277              10.301              
H              -10.176             -11.795             10.723              
H              -10.599             -9.755              8.688               
H              -11.642             -10.983             8.95                
H              -12.557             -11.085             11.454              
H              -11.208             -7.661              9.537               
H              -13.804             -9.753              12.995              
H              -12.433             -6.296              11.083              
H              -13.74              -7.352              12.819              
N              -8.092              -11.904             8.357               
C              -7.463              -12.436             7.138               
C              -8.421              -13.116             6.136               
O              -8.337              -14.314             5.87                
C              -6.239              -13.287             7.508               
S              -5.1                -13.648             6.133               
H              -7.547              -11.193             8.981               
H              -7.012              -11.658             6.652               
H              -5.727              -12.801             8.216               
H              -6.568              -14.158             7.875               
N              -9.339              -12.319             5.579               
C              -10.423             -12.754             4.693               
C              -9.931              -13.377             3.376               
O              -8.823              -13.106             2.916               
C              -11.306             -11.541             4.376               
O              -11.674             -10.87              5.567               
H              -9.212              -11.296             5.844               
H              -10.962             -13.462             5.183               
H              -10.796             -10.918             3.795               
H              -12.126             -11.857             3.913               
H              -11.303             -11.36              6.355               
N              -10.812             -14.14              2.708               
C              -10.611             -14.852             1.43                
C              -10.442             -13.928             0.2                 
O              -11.109             -14.093             -0.829              
C              -11.766             -15.842             1.219               
O              -11.92              -16.658             2.364               
H              -11.759             -14.197             3.221               
H              -9.762              -15.404             1.514               
H              -12.6               -15.329             1.068               
H              -11.555             -16.413             0.436               
H              -11.633             -16.152             3.177               
N              -9.543              -12.944             0.306               
C              -9.139              -11.933             -0.687              
C              -9.629              -10.537             -0.238              
C              -11.148             -10.365             -0.024              
C              -11.968             -10.386             -1.32               
N              -12.077             -11.739             -1.88               
C              -12.506             -12.068             -3.083              
N              -12.937             -11.156             -3.912              
N              -12.49              -13.325             -3.455              
H              -9.078              -12.945             1.293               
H              -9.605              -12.134             -1.56               
H              -9.174              -10.313             0.629               
H              -9.345              -9.871              -0.933              
H              -11.48              -11.106             0.565               
H              -11.315             -9.487              0.433               
H              -12.877             -10.042             -1.112              
H              -11.514             -9.793              -1.977              
H              -11.787             -12.508             -1.264              
H              -12.937             -10.183             -3.67               
H              -13.282             -11.423             -4.826              
H              -12.136             -14.037             -2.841              
H              -12.832             -13.592             -4.363              
H              -8.04674            -11.9337            -0.867248           
H              -4.79198            2.07998             3.4474              
H              9.47954             16.6546             3.20623             
