377
3.xyz
C              40.04               -3.947              34.284              
O              40.681              -3.164              33.595              
N              40.384              -4.251              35.528              
C              41.576              -3.692              36.153              
C              42.501              -4.828              36.66               
O              43.27               -4.638              37.621              
C              41.203              -2.821              37.338              
O              40.595              -3.634              38.352              
C              40.239              -1.737              36.908              
H              39.741              -4.911              36.01               
H              42.087              -3.166              35.47               
H              42.049              -2.407              37.735              
H              39.3                -2.091              36.91               
H              40.293              -0.958              37.539              
H              40.466              -1.422              35.982              
H              39.628              -3.798              38.134              
N              42.416              -6.002              36.028              
C              43.22               -7.148              36.443              
C              44.643              -7.212              35.915              
O              45.552              -7.645              36.617              
C              42.519              -8.463              36.107              
C              43.244              -9.662              36.716              
C              42.423              -10.921             36.649              
C              43.16               -12.076             37.296              
N              42.507              -13.367             36.936              
H              41.747              -6.024              35.239              
H              43.256              -7.158              37.475              
H              41.603              -8.434              36.476              
H              42.509              -8.572              35.125              
H              44.106              -9.801              36.218              
H              43.456              -9.454              37.676              
H              41.567              -10.781             37.135              
H              42.25               -11.15              35.698              
H              44.103              -12.085             36.974              
H              43.14               -11.965             38.286              
H              41.784              -13.566             37.596              
H              42.115              -13.295             36.02               
H              43.188              -14.098             36.953              
N              44.825              -6.855              34.656              
C              46.145              -6.905              34.07               
C              46.778              -5.532              34.036              
O              47.995              -5.387              33.937              
C              46.041              -7.465              32.648              
C              45.739              -8.969              32.622              
O              45.587              -9.585              33.718              
O              45.665              -9.538              31.496              
H              43.977              -6.551              34.153              
H              46.719              -7.482              34.668              
H              45.306              -6.991              32.181              
H              46.906              -7.312              32.19               
N              45.927              -4.526              34.122              
C              46.337              -3.138              34.051              
C              45.042              -2.362              34.276              
O              43.969              -2.959              34.366              
C              46.845              -2.843              32.632              
C              45.81               -3.203              31.558              
C              46.398              -3.279              30.159              
N              46.733              -1.951              29.67               
C              45.975              -1.238              28.84               
N              44.827              -1.72               28.37               
N              46.331              0.005               28.549              
H              44.926              -4.819              34.246              
H              46.955              -2.939              34.786              
H              47.033              -1.878              32.562              
H              47.652              -3.385              32.47               
H              45.407              -4.094              31.779              
H              45.087              -2.509              31.557              
H              47.218              -3.835              30.199              
H              45.721              -3.692              29.563              
H              47.601              -1.538              29.98               
H              44.508              -2.623              28.653              
H              44.281              -1.174              27.732              
H              47.148              0.408               28.963              
H              45.78               0.548               27.911              
N              45.142              -1.056              34.423              
C              43.952              -0.25               34.57               
C              43.513              0.097               33.133              
O              44.208              0.812               32.39               
C              44.253              1.055               35.32               
S              45.051              0.884               36.946              
H              46.102              -0.679              34.424              
H              43.238              -0.794              34.977              
H              44.85               1.616               34.737              
H              43.383              1.544               35.449              
N              42.401              -0.468              32.697              
C              41.928              -0.13               31.366              
C              41.624              1.355               31.45               
O              40.879              1.796               32.318              
C              40.674              -0.932              30.993              
C              40.327              -0.761              29.513              
C              39.036              -1.436              29.114              
C              38.797              -1.268              27.602              
N              37.464              -1.805              27.255              
H              41.939              -1.115              33.333              
H              42.65               -0.273              30.716              
H              40.852              -1.886              31.162              
H              39.919              -0.597              31.531              
H              40.259              0.226               29.313              
H              41.082              -1.14               28.961              
H              39.094              -2.403              29.309              
H              38.28               -1.016              29.591              
H              38.84               -0.301              27.383              
H              39.501              -1.77               27.115              
H              37.298              -1.687              26.275              
H              37.424              -2.779              27.482              
H              36.759              -1.316              27.771              
N              42.254              2.145               30.575              
C              42.184              3.604               30.402              
C              40.765              4.188               30.302              
O              40.399              5.073               31.083              
C              42.958              3.825               29.104              
C              43.911              2.73                29.093              
C              43.088              1.558               29.512              
H              42.705              4.074               31.149              
H              42.333              3.79                28.319              
H              43.41               4.72                29.119              
H              44.296              2.584               28.178              
H              44.66               2.886               29.741              
H              42.518              1.22                28.77               
H              43.65               0.821               29.877              
N              39.994              3.741               29.315              
C              38.607              4.226               29.139              
C              37.687              3.049               28.864              
O              38.058              2.117               28.131              
C              38.457              5.287               27.993              
C              38.789              4.708               26.7                
C              37.013              5.787               27.909              
H              40.43               3.042               28.692              
H              38.325              4.655               29.997              
H              39.112              6.014               28.206              
H              38.699              5.39                25.958              
H              39.74               4.364               26.685              
H              38.18               3.932               26.478              
H              36.45               5.085               27.477              
H              36.678              5.972               28.831              
H              36.989              6.624               27.365              
N              36.486              3.094               29.425              
C              35.535              2.017               29.21               
C              35.795              0.825               30.143              
C              35.003              -0.402              29.738              
H              36.297              3.926               30.002              
H              35.609              1.745               28.25               
H              36.764              0.607               30.107              
H              35.53               1.087               31.064              
O              35.322              -1.065              28.744              
N              33.929              -0.682              30.465              
H              33.678              -0.088              31.233              
H              33.37               -1.481              30.25               
C              46.286              9.914               39.202              
O              47.377              9.359               39.139              
N              45.516              9.86                40.288              
C              45.911              9.081               41.47               
C              45.861              7.58                41.15               
O              46.198              6.733               41.988              
C              44.957              9.361               42.647              
O              43.628              8.884               42.403              
H              44.636              10.401              40.23               
H              46.858              9.315               41.694              
H              45.314              8.909               43.463              
H              44.919              10.347              42.8                
H              43.634              8.303               41.594              
N              45.338              7.27                39.966              
C              45.203              5.914               39.504              
C              46.568              5.346               39.256              
O              47.23               5.771               38.315              
C              44.448              5.892               38.188              
O              44.183              4.559               37.814              
H              45.036              8.105               39.406              
H              44.765              5.375               40.229              
H              43.589              6.376               38.299              
H              45.005              6.322               37.488              
H              44.478              4.409               36.87               
N              46.994              4.408               40.099              
C              48.286              3.753               39.915              
C              48.057              2.291               40.078              
O              47.683              1.854               41.167              
C              49.324              4.213               40.939              
C              50.079              5.49                40.526              
C              50.712              5.385               39.111              
C              51.057              6.779               38.529              
N              51.682              6.732               37.17               
H              46.345              4.19                40.876              
H              48.611              3.944               38.994              
H              48.86               4.398               41.799              
H              49.994              3.487               41.059              
H              49.441              6.261               40.527              
H              50.811              5.664               41.185              
H              51.548              4.86                39.179              
H              50.062              4.947               38.507              
H              50.207              7.32                38.485              
H              51.687              7.239               39.169              
H              51.927              5.789               36.955              
H              51.028              7.073               36.497              
H              52.501              7.303               37.166              
N              48.238              1.533               38.999              
C              48.027              0.089               39.064              
C              48.788              -0.463              40.288              
O              49.886              -0.006              40.6                
C              48.504              -0.589              37.771              
C              48.273              -2.088              37.77               
C              47.05               -2.629              37.383              
C              49.289              -2.972              38.153              
C              46.85               -4.016              37.372              
C              49.096              -4.351              38.143              
C              47.88               -4.868              37.746              
O              47.715              -6.232              37.679              
H              48.528              2.035               38.149              
H              47.057              -0.087              39.204              
H              48.003              -0.196              37.011              
H              49.477              -0.425              37.675              
H              46.302              -2.028              37.11               
H              50.173              -2.603              38.439              
H              45.963              -4.387              37.093              
H              49.838              -4.961              38.423              
H              46.846              -6.436              37.232              
N              48.191              -1.412              41.035              
C              46.873              -2.042              40.876              
C              45.706              -1.235              41.456              
O              44.577              -1.733              41.499              
C              47.046              -3.329              41.664              
C              47.87               -2.844              42.851              
C              48.93               -2.025              42.158              
H              46.7                -2.256              39.892              
H              46.178              -3.685              41.974              
H              47.551              -4.005              41.151              
H              47.314              -2.288              43.444              
H              48.261              -3.612              43.327              
H              49.299              -1.32               42.76               
H              49.672              -2.6                41.817              
N              45.993              -0.049              41.988              
C              44.957              0.786               42.572              
C              44.43               1.754               41.533              
O              44.737              2.949               41.538              
C              45.456              1.524               43.819              
C              46.011              0.574               44.886              
H              46.994              0.216               41.948              
H              44.197              0.183               42.828              
H              46.182              2.148               43.549              
H              44.695              2.027               44.215              
O              47.21               0.588               45.168              
N              45.15               -0.263              45.465              
H              44.187              -0.242              45.178              
H              45.455              -0.895              46.165              
N              43.638              1.206               40.625              
C              43.049              1.975               39.538              
C              41.965              2.935               40.038              
O              41.192              2.611               40.942              
C              42.494              1.01                38.479              
S              43.714              -0.242              37.94               
H              43.473              0.183               40.754              
H              43.776              2.528               39.108              
H              41.718              0.533               38.866              
H              42.228              1.538               37.685              
N              41.944              4.138               39.484              
C              40.959              5.128               39.902              
C              40.343              5.702               38.657              
O              41.055              5.97                37.682              
C              41.604              6.221               40.735              
H              42.658              4.307               38.759              
H              40.254              4.672               40.438              
H              40.959              6.976               40.855              
H              41.857              5.856               41.631              
H              42.424              6.557               40.272              
N              39.011              5.824               38.688              
C              38.231              6.32                37.57               
C              37.266              7.447               37.91               
O              36.805              7.593               39.032              
C              37.385              5.19                36.963              
C              38.2                4.084               36.385              
C              38.673              3.047               37.197              
C              38.604              4.126               35.054              
C              39.545              2.099               36.703              
C              39.47               3.176               34.549              
C              39.942              2.171               35.386              
O              40.852              1.257               34.898              
H              38.582              5.526               39.599              
H              38.88               6.669               36.859              
H              36.806              4.822               37.686              
H              36.821              5.586               36.243              
H              38.371              2.997               38.15               
H              38.262              4.851               34.461              
H              39.885              1.366               37.295              
H              39.758              3.206               33.594              
H              40.917              1.359               33.908              
N              36.944              8.203               36.877              
C              35.986              9.271               36.958              
C              34.752              8.71                36.245              
O              34.846              8.223               35.12               
C              36.485              10.509              36.221              
C              35.41               11.565              36.045              
C              35.991              12.875              35.549              
C              36.86               12.679              34.302              
N              36.107              12.233              33.087              
H              37.452              7.952               35.99               
H              35.752              9.444               37.895              
H              37.232              10.905              36.744              
H              36.803              10.23               35.321              
H              34.735              11.237              35.381              
H              34.958              11.723              36.924              
H              35.247              13.495              35.315              
H              36.559              13.273              36.263              
H              37.327              13.553              34.095              
H              37.576              11.995              34.513              
H              36.373              11.298              32.863              
H              35.128              12.27               33.277              
H              36.327              12.839              32.325              
N              33.643              8.712               36.967              
C              32.352              8.263               36.492              
C              31.609              9.404               35.801              
O              31.438              10.478              36.37               
C              31.508              7.779               37.676              
O              32.157              6.65                38.271              
C              30.06               7.403               37.235              
H              33.786              9.082               37.952              
H              32.49               7.527               35.819              
H              31.458              8.52                38.372              
H              30.109              6.868               36.396              
H              29.633              6.868               37.959              
H              29.544              8.241               37.078              
H              32.367              6.836               39.237              
N              31.099              9.16                34.61               
C              30.391              10.209              33.915              
C              29.166              9.674               33.173              
O              29.3                8.894               32.238              
C              31.342              10.876              32.964              
O              32.54               11.176              33.678              
C              30.737              12.156              32.422              
H              31.243              8.212               34.244              
H              30.072              10.892              34.59               
H              31.58               10.234              32.209              
H              29.742              12.057              32.34               
H              30.939              12.92               33.041              
H              31.12               12.36               31.517              
H              32.424              10.982              34.659              
N              27.981              10.089              33.603              
C              26.757              9.636               32.996              
C              26.431              10.583              31.867              
O              26.688              11.778              31.964              
C              25.646              9.605               34.052              
C              24.215              9.392               33.541              
C              24.066              8.13                32.742              
H              28.021              10.757              34.402              
H              26.914              8.732               32.604              
H              25.848              8.864               34.711              
H              25.661              10.48               34.562              
H              23.605              9.354               34.333              
H              23.97               10.175              32.969              
O              23.287              8.06                31.781              
N              24.836              7.121               33.117              
H              24.787              6.215               32.632              
H              25.481              7.247               33.892              
N              25.883              10.055              30.79               
C              25.529              10.893              29.655              
C              24.546              10.108              28.804              
O              24.356              8.916               29.029              
C              26.794              11.212              28.841              
H              25.732              9.034               30.82               
H              25.081              11.717              29.986              
H              27.423              10.441              28.9                
H              26.539              11.368              27.89               
H              27.225              12.03               29.215              
N              23.913              10.788              27.852              
C              22.995              10.163              26.919              
C              21.585              10.759              26.993              
C              20.764              10.131              28.083              
H              24.137              11.811              27.837              
H              23.049              9.189               27.059              
H              21.67               11.734              27.17               
H              21.137              10.604              26.118              
O              20.199              9.055               27.911              
N              20.722              10.781              29.229              
H              21.213              11.647              29.342              
H              20.195              10.412              30                  
H              23.4158             10.3741             25.9431             
H              34.5382             2.39976             29.3637             
H              39.1619             -4.42721            33.8973             
H              45.9342             10.4689             38.37               
