256
0.xyz
N              4.655               9.427               7.083               
C              4.394               10.626              6.243               
C              4.257               10.217              4.777               
O              5.223               9.751               4.174               
C              5.527               11.668              6.423               
C              5.567               12.141              7.886               
C              5.361               12.849              5.482               
C              6.184               13.512              8.094               
H              4.699               9.7                 8.041               
H              3.503               10.971              6.534               
H              6.386               11.221              6.222               
H              4.629               12.15               8.238               
H              6.092               11.47               8.414               
H              6.128               13.479              5.596               
H              5.337               12.524              4.538               
H              4.508               13.326              5.69                
H              5.658               14.19               7.584               
H              6.168               13.736              9.067               
H              7.127               13.501              7.767               
H              3.917               8.769               6.954               
H              5.522               9.017               6.81                
N              3.037               10.374              4.25                
C              2.661               10.025              2.864               
C              3.825               9.516               1.979               
O              4.136               10.116              0.946               
C              1.962               11.229              2.175               
C              2.108               12.583              2.886               
C              0.755               13.171              3.317               
N              0.722               14.629              3.146               
C              1.423               15.465              3.885               
N              2.027               15.021              4.966               
N              1.457               16.744              3.584               
H              2.337               10.783              4.929               
H              1.949               9.296               2.899               
H              2.346               11.32               1.257               
H              0.987               11.02               2.11                
H              2.667               12.467              3.704               
H              2.542               13.234              2.268               
H              0.051               12.757              2.755               
H              0.619               12.948              4.274               
H              0.131               15                  2.426               
H              1.993               14.065              5.242               
H              2.551               15.671              5.546               
H              0.963               17.085              2.777               
H              1.973               17.388              4.152               
N              4.44                8.381               2.34                
C              5.505               7.816               1.498               
C              4.855               6.857               0.518               
O              4.678               5.676               0.814               
C              6.601               7.097               2.287               
H              4.116               7.961               3.216               
H              5.921               8.559               0.986               
H              6.46                7.273               3.255               
H              6.536               6.123               2.099               
N              4.443               7.431               -0.609              
C              3.716               6.75                -1.69               
C              2.236               7.061               -1.51               
O              1.897               8.049               -0.853              
C              3.978               5.221               -1.77               
C              4.664               4.772               -3.049              
C              5.36                5.674               -3.812              
C              4.659               3.457               -3.448              
C              6.044               5.294               -4.949              
C              5.354               3.058               -4.58               
C              6.05                3.979               -5.327              
H              4.69                8.461               -0.67               
H              4.001               7.175               -2.54               
H              4.56                4.98                -1.011              
H              3.104               4.768               -1.718              
H              5.379               6.645               -3.541              
H              4.15                2.774               -2.919              
H              6.532               5.992               -5.491              
H              5.341               2.077               -4.851              
H              6.558               3.69                -6.141              
N              1.355               6.265               -2.08               
C              -0.07               6.547               -1.933              
C              -0.585              6.19                -0.546              
O              -1.012              7.065               0.204               
C              -0.961              5.854               -2.989              
C              -0.275              4.65                -3.634              
C              -1.361              6.862               -4.052              
C              0.653               5.023               -4.768              
H              1.733               5.472               -2.608              
H              -0.171              7.546               -2.03               
H              -1.787              5.529               -2.524              
H              0.246               4.169               -2.932              
H              -0.982              4.039               -3.986              
H              -1.992              6.435               -4.698              
H              -1.808              7.645               -3.621              
H              -0.548              7.174               -4.541              
H              1.37                5.629               -4.425              
H              1.067               4.195               -5.144              
H              0.133               5.491               -5.482              
N              -0.563              4.904               -0.209              
C              -1.064              4.457               1.095               
C              -0.656              3.031               1.424               
O              -0.745              2.155               0.567               
C              -2.6                4.504               1.128               
O              -3.153              4.589               -0.181              
C              -3.158              5.651               1.929               
H              -0.175              4.266               -0.921              
H              -0.683              5.072               1.806               
H              -2.946              3.639               1.567               
H              -4.043              5.396               2.331               
H              -2.526              5.897               2.671               
H              -3.291              6.454               1.34                
H              -2.533              5.091               -0.796              
N              -0.282              2.758               2.697               
C              0.034               1.401               3.118               
C              -1.267              0.601               3.2                 
O              -2.241              0.948               2.51                
C              0.689               1.602               4.484               
C              0.067               2.844               5.017               
C              -0.224              3.721               3.823               
H              0.677               0.966               2.493               
H              0.503               0.819               5.084               
H              1.682               1.707               4.388               
H              -0.784              2.631               5.516               
H              0.694               3.311               5.655               
H              -1.098              4.194               3.921               
H              0.504               4.389               3.673               
N              -1.325              -0.443              4.017               
C              -2.568              -1.213              4.118               
C              -3.792              -0.268              4.201               
O              -3.9                0.509               5.148               
C              -2.563              -2.147              5.345               
C              -1.607              -3.318              5.225               
O              -1.83               -4.185              4.352               
O              -0.646              -3.38               6.017               
H              -0.473              -0.653              4.542               
H              -2.668              -1.736              3.268               
H              -2.305              -1.6                6.139               
H              -3.489              -2.497              5.462               
N              -4.708              -0.385              3.211               
C              -5.982              0.395               3.141               
C              -6.079              1.491               2.008               
O              -5.916              1.157               0.833               
C              -6.386              0.903               4.555               
C              -6.564              -0.322              5.455               
C              -7.674              1.711               4.56                
C              -6.034              -0.147              6.856               
H              -4.446              -1.086              2.476               
H              -6.713              -0.281              2.932               
H              -5.641              1.439               4.903               
H              -7.541              -0.54               5.499               
H              -6.091              -1.095              5.025               
H              -7.88               2.005               5.492               
H              -7.568              2.513               3.975               
H              -8.424              1.147               4.217               
H              -6.509              0.613               7.3                 
H              -6.187              -0.986              7.378               
H              -5.054              0.049               6.82                
N              -6.408              2.768               2.347               
C              -6.601              3.874               1.355               
C              -6.451              5.262               2.023               
O              -5.791              6.159               1.508               
C              -8.035              3.846               0.729               
O              -8.992              4.413               1.611               
C              -8.564              2.48                0.351               
H              -6.517              2.916               3.374               
H              -5.893              3.784               0.652               
H              -8.013              4.4                 -0.134              
H              -7.806              1.881               0.077               
H              -9.039              2.066               1.133               
H              -9.208              2.56                -0.415              
H              -8.898              4.024               2.536               
N              -7.18               5.405               3.124               
C              -7.321              6.636               3.931               
C              -6.098              7.547               4.189               
O              -6.081              8.684               3.725               
C              -7.909              6.268               5.289               
O              -8.537              7.4                 5.87                
H              -7.691              4.508               3.403               
H              -8.044              7.224               3.465               
H              -8.584              5.552               5.166               
H              -7.177              5.963               5.886               
H              -9.056              7.888               5.17                
N              -5.182              7.127               5.072               
C              -4.094              8.034               5.521               
C              -2.658              7.644               5.206               
O              -2.367              6.67                4.513               
C              -4.153              8.16                7.04                
C              -5.436              7.658               7.649               
C              -5.385              7.717               9.157               
C              -6.727              7.335               9.735               
N              -6.969              5.865               9.609               
H              -5.289              6.163               5.401               
H              -4.28               8.966               5.11                
H              -3.392              7.638               7.424               
H              -4.044              9.127               7.275               
H              -6.198              8.224               7.328               
H              -5.588              6.709               7.366               
H              -4.703              7.077               9.484               
H              -5.168              8.642               9.439               
H              -6.754              7.586               10.704              
H              -7.45               7.825               9.246               
H              -6.872              5.597               8.652               
H              -6.302              5.374               10.166              
H              -7.893              5.656               9.926               
N              -1.757              8.444               5.808               
C              -0.329              8.245               5.689               
C              0.174               7.215               6.678               
O              -0.116              7.279               7.877               
C              0.47                9.526               5.959               
C              -0.142              10.796              5.42                
O              -0.724              10.759              4.325               
O              0.002               11.839              6.09                
H              -2.191              9.216               6.365               
H              -0.152              7.879               4.763               
H              0.573               9.614               6.955               
H              1.381               9.407               5.552               
N              1                   6.321               6.169               
C              1.658               5.312               6.986               
C              2.001               5.919               8.329               
O              2.723               6.923               8.382               
C              2.955               4.902               6.311               
H              1.142               6.397               5.136               
H              1.017               4.559               7.134               
H              3.642               4.746               7.003               
H              2.794               4.088               5.774               
N              1.518               5.348               9.428               
C              1.816               5.897               10.742              
C              3.294               5.723               11.106              
O              3.834               6.483               11.903              
C              0.879               5.126               11.666              
C              0.652               3.828               10.973              
C              0.672               4.137               9.498               
H              1.553               6.871               10.797              
H              1.304               4.984               12.565              
H              0.016               5.623               11.792              
H              1.376               3.168               11.208              
H              -0.235              3.432               11.242              
H              1.082               3.395               8.974               
H              -0.244              4.33                9.152               
N              3.95                4.748               10.471              
C              5.377               4.5                 10.679              
C              6.118               4.708               9.345               
O              5.941               3.926               8.413               
C              5.59                3.073               11.233              
C              6.88                2.932               12.025              
H              3.362               4.185               9.821               
H              5.714               5.198               11.306              
H              4.823               2.856               11.829              
H              5.617               2.444               10.462              
O              7.416               3.909               12.53               
N              7.387               1.711               12.135              
H              6.917               0.94                11.697              
H              8.228               1.558               12.647              
N              6.906               5.794               9.231               
C              7.604               6.077               7.964               
H              6.973               6.379               10.068              
H              7.89                5.188               7.541               
H              6.936               6.491               7.306               
H              7.60183             7.41682             2.03457             
H              3.33039             5.66578             5.64299             
H              8.48442             6.7348              8.03725             
