238
1.xyz
S              8.294               7.638               1.86                
C              8.83                6.993               8.066               
O              8.914               7.843               8.948               
N              9.763               6.808               7.118               
C              11.012              7.596               7.025               
C              11.563              7.59                5.589               
O              11.955              8.625               5.053               
C              12.069              7.03                7.964               
C              12.798              8.08                8.726               
H              9.53                6.046               6.437               
H              10.803              8.544               7.277               
H              11.627              6.409               8.62                
H              12.737              6.505               7.426               
N              14.161              8.069               8.887               
C              12.348              9.168               9.39                
C              14.526              9.1                 9.627               
N              13.443              9.785               9.943               
H              14.783              7.384               8.502               
H              11.401              9.468               9.466               
H              15.457              9.322               9.901               
N              11.574              6.4                 4.988               
C              12.044              6.192               3.614               
C              10.933              5.545               2.801               
O              10.238              4.655               3.308               
C              13.263              5.231               3.541               
C              14.385              5.808               2.699               
C              13.773              4.867               4.921               
H              11.215              5.616               5.586               
H              12.242              7.087               3.216               
H              12.954              4.394               3.091               
H              15.156              5.17                2.683               
H              14.061              5.959               1.764               
H              14.685              6.679               3.089               
H              13.65               3.886               5.074               
H              14.745              5.096               4.988               
H              13.261              5.379               5.611               
N              10.77               5.933               1.543               
C              9.747               5.294               0.719               
C              10.214              3.872               0.407               
O              10.93               3.607               -0.555              
C              9.444               6.112               -0.528              
S              8.371               7.551               -0.178              
H              11.391              6.679               1.218               
H              8.907               5.235               1.247               
H              10.294              6.454               -0.9                
H              8.972               5.537               -1.18               
N              9.869               3                   1.336               
C              10.264              1.594               1.357               
C              9.398               0.68                0.446               
O              8.695               -0.203              0.93                
C              10.18               1.212               2.837               
C              10.801              -0.074              3.264               
C              12.175              -0.256              3.288               
C              9.993               -1.087              3.723               
C              12.718              -1.437              3.75                
C              10.523              -2.255              4.197               
C              11.882              -2.43               4.206               
O              12.406              -3.592              4.692               
H              9.256               3.417               2.099               
H              11.223              1.524               1.028               
H              10.605              1.966               3.371               
H              9.195               1.191               3.091               
H              12.778              0.475               2.967               
H              8.995               -0.965              3.71                
H              13.712              -1.569              3.754               
H              9.92                -2.985              4.538               
H              13.162              -3.887              4.108               
N              9.518               0.907               -0.869              
C              8.839               0.156               -1.963              
C              8.953               -1.394              -1.744              
O              9.685               -2.079              -2.453              
C              9.588               0.65                -3.226              
O              9.736               2.073               -3.151              
C              8.99                0.374               -4.594              
H              10.176              1.715               -1.091              
H              7.867               0.393               -1.954              
H              10.514              0.231               -3.238              
H              7.989               0.414               -4.544              
H              9.312               1.059               -5.252              
H              9.266               -0.537              -4.91               
H              10.709              2.322               -3.109              
N              8.276               -1.912              -0.685              
C              8.357               -3.344              -0.277              
C              7.387               -4.308              -0.99               
O              6.272               -4.556              -0.521              
C              8.15                -3.474              1.25                
C              8.595               -4.821              1.82                
C              9.209               -4.687              3.205               
C              9.35                -6.039              3.878               
N              9.036               -5.978              5.336               
H              7.69                -1.216              -0.178              
H              9.314               -3.665              -0.448              
H              8.676               -2.756              1.693               
H              7.18                -3.357              1.438               
H              7.798               -5.427              1.875               
H              9.272               -5.226              1.202               
H              10.111              -4.278              3.118               
H              8.621               -4.113              3.764               
H              8.726               -6.691              3.437               
H              10.293              -6.367              3.761               
H              9.155               -6.885              5.737               
H              9.654               -5.331              5.779               
H              8.091               -5.678              5.457               
N              7.87                -4.911              -2.072              
C              7.12                -5.922              -2.846              
C              7.277               -7.318              -2.21               
O              7.627               -8.287              -2.879              
C              7.657               -5.948              -4.285              
O              7.533               -4.675              -4.877              
C              6.977               -6.944              -5.204              
H              8.838               -4.61               -2.338              
H              6.149               -5.677              -2.827              
H              8.651               -6.201              -4.257              
H              6.822               -7.808              -4.718              
H              6.094               -6.579              -5.511              
H              7.554               -7.12               -6.006              
H              8.009               -3.974              -4.329              
N              7.041               -7.412              -0.902              
C              7.189               -8.68               -0.178              
C              5.878               -9.47               -0.102              
O              4.799               -8.905              0.112               
C              7.774               -8.387              1.221               
C              7.11                -9.081              2.38                
C              5.814               -8.946              2.796               
C              7.723               -9.998              3.296               
N              5.583               -9.748              3.886               
C              6.733               -10.4               4.208               
C              9.002               -10.538             3.429               
C              6.977               -11.299             5.232               
C              9.244               -11.436             4.454               
C              8.231               -11.811             5.339               
H              6.748               -6.527              -0.446              
H              7.854               -9.246              -0.687              
H              8.738               -8.661              1.226               
H              7.711               -7.401              1.391               
H              5.135               -8.351              2.37                
H              4.708               -9.837              4.365               
H              9.735               -10.286             2.799               
H              6.237               -11.554             5.87                
H              10.159              -11.818             4.558               
H              8.446               -12.471             6.062               
N              5.994               -10.781             -0.278              
C              4.839               -11.675             -0.235              
C              4.832               -12.552             1.008               
O              3.821               -13.209             1.277               
C              4.802               -12.573             -1.477              
S              3.463               -12.166             -2.648              
H              6.966               -11.114             -0.447              
H              4.002               -11.106             -0.223              
H              5.668               -12.48              -1.956              
H              4.673               -13.514             -1.178              
N              5.952               -12.585             1.747               
C              6.052               -13.418             2.943               
C              6.087               -14.888             2.518               
O              7.101               -15.578             2.654               
C              4.853               -13.118             3.859               
C              4.972               -13.693             5.254               
O              5.993               -14.336             5.56                
O              4.031               -13.484             6.044               
H              6.717               -11.981             1.399               
H              6.93                -13.218             3.373               
H              4.765               -12.124             3.926               
H              4.037               -13.495             3.422               
N              4.975               -15.319             1.952               
C              4.812               -16.662             1.439               
C              3.582               -16.724             0.516               
O              3.639               -17.295             -0.574              
C              4.686               -17.645             2.597               
H              4.211               -14.595             1.906               
H              5.619               -16.913             0.899               
H              5.504               -18.217             2.639               
H              4.589               -17.14              3.454               
H              3.882               -18.222             2.458               
N              2.472               -16.123             0.981               
C              1.197               -16.098             0.234               
C              0.847               -14.76              -0.391              
O              0.444               -14.701             -1.546              
C              0.006               -16.317             1.16                
C              -0.122              -17.633             1.833               
C              -0.038              -18.818             1.128               
C              -0.385              -17.668             3.191               
C              -0.204              -20.026             1.776               
C              -0.56               -18.865             3.843               
C              -0.469              -20.05              3.137               
H              2.588               -15.675             1.915               
H              1.302               -16.766             -0.529              
H              0.047               -15.605             1.874               
H              -0.829              -16.163             0.614               
H              0.144               -18.806             0.15                
H              -0.447              -16.807             3.703               
H              -0.133              -20.887             1.257               
H              -0.757              -18.877             4.838               
H              -0.593              -20.927             3.603               
N              0.827               -13.722             0.459               
C              0.334               -12.396             0.073               
C              -1.197              -12.438             0.283               
O              -1.966              -12.656             -0.657              
C              0.699               -12.046             -1.383              
S              2.189               -11.01              -1.554              
H              1.19                -13.941             1.41                
H              0.705               -11.728             0.693               
H              0.854               -12.897             -1.875              
H              -0.069              -11.554             -1.783              
N              -1.601              -12.331             1.565               
C              -3.011              -12.462             1.994               
C              -3.897              -11.209             1.906               
O              -5.063              -11.286             2.301               
C              -3.055              -12.977             3.439               
O              -4.281              -13.641             3.706               
H              -0.823              -12.145             2.239               
H              -3.442              -13.187             1.404               
H              -2.304              -13.615             3.574               
H              -2.965              -12.202             4.056               
H              -4.303              -14.508             3.211               
N              -3.431              -10.075             1.395               
C              -4.337              -8.915              1.311               
C              -4.851              -8.739              -0.12               
O              -4.05               -8.726              -1.044              
C              -3.718              -7.589              1.838               
C              -3.776              -7.52               3.377               
C              -4.5                -6.398              1.29                
C              -3.872              -8.852              4.101               
H              -2.465              -10.073             1.088               
H              -5.131              -9.143              1.876               
H              -2.762              -7.572              1.566               
H              -2.955              -7.035              3.698               
H              -4.574              -6.96               3.63                
H              -4.085              -5.551              1.616               
H              -4.479              -6.418              0.293               
H              -5.445              -6.449              1.605               
H              -3.073              -9.406              3.876               
H              -3.903              -8.689              5.085               
H              -4.702              -9.324              3.811               
N              -6.191              -8.616              -0.258              
H              -6.71               -8.655              0.659               
H              -6.69406            -8.49388            -1.15935            
H              7.02191             7.2315              2.18084             
H              7.97427             6.35364             7.99481             
