400
3.xyz
C              16.184              0.638               5.37                
O              15.071              0.368               4.922               
N              17.336              0.163               4.872               
C              17.458              -0.751              3.736               
C              18.301              -1.92               4.252               
O              19.478              -2.059              3.914               
H              18.188              0.523               5.396               
H              16.564              -1.093              3.51                
N              17.717              -2.713              5.171               
C              18.42               -3.815              5.849               
C              18.572              -5.122              5.057               
O              19.44               -5.928              5.383               
C              17.586              -4.02               7.113               
C              16.211              -3.552              6.772               
C              16.345              -2.53               5.68                
H              19.343              -3.494              6.177               
H              17.579              -4.993              7.379               
H              17.967              -3.489              7.88                
H              15.639              -4.331              6.467               
H              15.763              -3.15               7.587               
H              15.677              -2.685              4.946               
H              16.224              -1.596              6.032               
N              17.772              -5.338              4.017               
C              17.913              -6.563              3.214               
C              17.639              -6.315              1.737               
O              18.558              -6.41               0.924               
C              17.062              -7.731              3.743               
O              17.095              -8.813              2.828               
C              15.607              -7.41               3.99                
H              17.076              -4.608              3.828               
H              18.862              -6.895              3.312               
H              17.458              -8.046              4.633               
H              15.525              -6.702              4.698               
H              15.179              -7.075              3.145               
H              15.119              -8.233              4.296               
H              16.365              -8.721              2.139               
N              16.394              -5.988              1.383               
C              16.049              -5.723              -0.014              
C              16.504              -6.867              -0.938              
O              17.41               -6.692              -1.757              
C              16.684              -4.398              -0.485              
C              16.015              -3.919              -1.747              
C              16.592              -3.329              0.592               
H              15.716              -5.94               2.161               
H              15.046              -5.656              -0.084              
H              17.636              -4.586              -0.704              
H              15.029              -4.092              -1.698              
H              16.168              -2.935              -1.863              
H              16.393              -4.404              -2.539              
H              16.34               -3.755              1.461               
H              17.479              -2.876              0.685               
H              15.897              -2.658              0.333               
N              15.876              -8.044              -0.786              
C              16.221              -9.23               -1.6                
C              15.344              -10.453             -1.239              
O              14.206              -10.287             -0.794              
C              17.715              -9.57               -1.447              
C              18.373              -8.921              -0.246              
C              19.238              -9.9                0.533               
C              20.555              -9.277              0.973               
N              21.026              -8.206              0.04                
H              15.138              -8.052              -0.059              
H              16.073              -9.009              -2.571              
H              17.796              -10.56              -1.359              
H              18.184              -9.264              -2.273              
H              18.949              -8.16               -0.558              
H              17.663              -8.562              0.365               
H              18.74               -10.194             1.345               
H              19.438              -10.686             -0.047              
H              20.438              -8.882              1.891               
H              21.256              -9.997              1.023               
H              20.664              -8.384              -0.873              
H              20.7                -7.321              0.366               
H              22.024              -8.21               0.014               
N              15.869              -11.681             -1.463              
C              15.116              -12.927             -1.187              
C              13.773              -12.851             -1.93               
O              13.724              -12.316             -3.031              
C              14.91               -13.137             0.337               
O              15.104              -11.943             1.051               
C              15.817              -14.179             0.962               
H              16.833              -11.672             -1.84               
H              15.634              -13.692             -1.55               
H              13.944              -13.461             0.485               
H              16.562              -13.729             1.461               
H              15.294              -14.75              1.601               
H              16.209              -14.765             0.248               
H              14.806              -11.143             0.51                
N              12.672              -13.323             -1.335              
C              11.383              -13.193             -1.995              
C              10.725              -11.865             -1.632              
O              9.499               -11.772             -1.544              
H              12.818              -13.761             -0.42               
H              11.507              -13.239             -2.992              
H              10.781              -13.948             -1.714              
N              11.564              -10.846             -1.386              
C              11.116              -9.513              -0.988              
C              11.713              -8.413              -1.877              
O              12.781              -7.876              -1.566              
C              11.56               -9.232              0.467               
C              10.805              -8.065              1.076               
C              11.41               -10.474             1.323               
H              12.575              -11.095             -1.506              
H              10.112              -9.475              -1.087              
H              12.527              -8.977              0.441               
H              10.754              -7.316              0.415               
H              9.879               -8.354              1.32                
H              11.28               -7.749              1.898               
H              12.164              -11.104             1.131               
H              11.428              -10.216             2.29                
H              10.54               -10.921             1.112               
N              11.023              -8.05               -2.954              
C              11.511              -6.984              -3.83               
C              11.285              -5.623              -3.158              
O              10.157              -5.143              -3.061              
C              10.813              -7.053              -5.193              
C              11.692              -7.667              -6.262              
O              12.897              -7.342              -6.301              
O              11.175              -8.477              -7.055              
H              10.145              -8.566              -3.113              
H              12.5                -7.102              -3.922              
H              9.997               -7.608              -5.09               
H              10.577              -6.128              -5.462              
N              12.354              -5.028              -2.641              
C              12.242              -3.751              -1.93               
C              12.926              -2.583              -2.66               
O              14.143              -2.53               -2.758              
C              12.862              -3.851              -0.517              
C              11.869              -4.387              0.503               
C              13.358              -2.49               -0.06               
C              12.497              -4.586              1.866               
H              13.248              -5.528              -2.779              
H              11.255              -3.529              -1.901              
H              13.633              -4.487              -0.57               
H              11.116              -3.745              0.585               
H              11.525              -5.262              0.18                
H              13.805              -2.578              0.829               
H              14.011              -2.131              -0.725              
H              12.586              -1.861              0.018               
H              12.845              -3.712              2.201               
H              11.809              -4.938              2.499               
H              13.249              -5.239              1.792               
N              12.157              -1.612              -3.117              
C              12.747              -0.441              -3.77               
C              12.908              0.729               -2.779              
O              12.439              1.844               -3.022              
C              11.894              -0.018              -4.955              
C              12.674              0.711               -6.012              
C              13.015              -0.168              -7.182              
H              11.144              -1.74               -2.982              
H              13.666              -0.692              -4.091              
H              11.488              -0.835              -5.367              
H              11.164              0.585               -4.627              
H              12.13               1.486               -6.341              
H              13.525              1.055               -5.61               
O              12.767              -1.367              -7.173              
N              13.593              0.43                -8.193              
H              13.875              -0.1                -9.035              
H              13.769              1.433               -8.155              
N              13.57               0.461               -1.654              
C              13.784              1.479               -0.612              
C              14.444              2.756               -1.163              
O              15.598              2.753               -1.588              
H              13.919              -0.514              -1.573              
H              12.883              1.735               -0.234              
N              13.675              3.849               -1.161              
C              14.144              5.15                -1.667              
C              13.868              6.29                -0.681              
O              12.735              6.474               -0.236              
C              13.437              5.488               -2.978              
S              11.617              5.554               -2.823              
H              12.719              3.704               -0.773              
H              15.142              5.09                -1.803              
H              13.748              6.378               -3.285              
H              13.66               4.789               -3.646              
N              14.896              7.072               -0.367              
C              14.747              8.212               0.548               
C              14.561              9.536               -0.205              
O              15.131              10.556              0.17                
C              15.96               8.309               1.473               
O              15.561              8.544               2.817               
H              15.796              6.816               -0.813              
H              13.92               8.057               1.105               
H              16.466              7.453               1.432               
H              16.535              9.063               1.172               
H              14.703              8.066               2.996               
N              13.736              9.525               -1.249              
C              13.46               10.748              -2.012              
C              12.264              11.489              -1.39               
O              11.619              10.966              -0.477              
C              13.147              10.431              -3.483              
O              13.549              11.497              -4.326              
C              11.676              10.186              -3.73               
H              13.317              8.607               -1.471              
H              14.26               11.346              -1.958              
H              13.669              9.589               -3.754              
H              11.555              9.588               -4.527              
H              11.26               9.746               -2.929              
H              11.206              11.056              -3.903              
H              12.774              12.112              -4.518              
N              11.965              12.681              -1.915              
C              10.831              13.498              -1.448              
C              9.496               12.97               -1.996              
O              8.53                12.785              -1.248              
C              11.005              14.962              -1.906              
C              11.874              15.787              -0.984              
O              13.085              15.508              -0.907              
O              11.344              16.725              -0.353              
H              12.601              12.986              -2.683              
H              10.794              13.406              -0.447              
H              11.418              14.945              -2.813              
H              10.098              15.372              -1.952              
N              9.43                12.769              -3.315              
C              8.193               12.315              -3.953              
C              8.256               10.878              -4.455              
O              7.892               10.587              -5.599              
C              7.771               13.265              -5.093              
C              8.859               14.239              -5.503              
H              10.306              12.957              -3.83               
H              7.465               12.35               -3.245              
H              7.524               12.708              -5.884              
H              6.975               13.783              -4.784              
O              10.041              13.904              -5.482              
N              8.474               15.445              -5.891              
H              7.495               15.674              -5.895              
H              9.146               16.124              -6.176              
N              8.631               9.957               -3.583              
C              8.614               8.565               -3.963              
C              7.143               8.154               -3.987              
O              6.592               7.794               -2.955              
C              9.448               7.711               -3.004              
S              11.119              7.339               -3.649              
H              8.92                10.308              -2.661              
H              8.97                8.476               -4.881              
H              9.554               8.205               -2.153              
H              8.98                6.85                -2.861              
N              6.542               8.316               -5.192              
C              5.111               8.058               -5.538              
C              4.829               8.796               -6.878              
O              4.405               9.957               -6.906              
C              4.121               8.438               -4.387              
C              3.02                9.408               -4.763              
H              7.225               8.671               -5.936              
H              5.029               7.093               -5.721              
H              3.706               7.584               -4.057              
H              4.669               8.836               -3.643              
O              2.267               9.177               -5.704              
N              2.882               10.476              -3.991              
H              3.495               10.61               -3.209              
H              2.17                11.15               -4.185              
N              5.203               8.138               -8.017              
C              5.123               8.724               -9.383              
C              3.77                8.574               -10.111             
O              3.518               7.593               -10.823             
C              6.235               7.968               -10.109             
C              6.253               6.617               -9.479              
C              5.851               6.808               -8.04               
H              5.399               9.712               -9.353              
H              6.036               7.904               -11.092             
H              7.117               8.433               -9.989              
H              5.609               5.997               -9.95               
H              7.175               6.21                -9.541              
H              5.206               6.101               -7.742              
H              6.649               6.798               -7.431              
N              2.928               9.589               -9.927              
C              1.591               9.663               -10.519             
C              0.583               8.927               -9.643              
O              0.774               7.776               -9.258              
C              1.571               9.233               -11.982             
C              2.101               10.355              -12.802             
C              1.268               11.338              -13.303             
C              3.461               10.471              -12.985             
C              1.796               12.423              -13.981             
C              3.997               11.538              -13.67              
C              3.166               12.52               -14.168             
H              3.312               10.35               -9.307              
H              1.325               10.63               -10.519             
H              2.161               8.471               -12.078             
H              0.65                9.071               -12.234             
H              0.283               11.271              -13.177             
H              4.073               9.765               -12.611             
H              1.181               13.137              -14.337             
H              5.001               11.597              -13.807             
H              3.545               13.303              -14.663             
N              -0.48               9.647               -9.266              
C              -1.529              9.16                -8.346              
C              -2.418              8.027               -8.856              
O              -3.613              7.981               -8.531              
C              -2.384              10.398              -8.078              
C              -2.003              11.419              -9.092              
C              -0.686              11.033              -9.678              
H              -1.104              8.9                 -7.443              
H              -3.37               10.17               -8.149              
H              -2.223              10.744              -7.139              
H              -2.718              11.48               -9.816              
H              -1.951              12.341              -8.66               
H              -0.694              11.106              -10.685             
H              0.06                11.621              -9.331              
N              -1.848              7.106               -9.616              
C              -2.601              5.969               -10.133             
C              -2.486              4.754               -9.198              
O              -1.402              4.354               -8.803              
C              -2.154              5.631               -11.568             
O              -0.741              5.708               -11.723             
C              -2.76               6.569               -12.581             
H              -0.839              7.258               -9.809              
H              -3.573              6.225               -10.192             
H              -2.449              4.667               -11.784             
H              -2.046              7.144               -12.993             
H              -3.214              6.047               -13.31              
H              -3.439              7.164               -12.14              
H              -0.339              6.301               -11.015             
N              -3.635              4.167               -8.879              
C              -3.721              2.98                -8.01               
C              -4.285              1.901               -8.904              
O              -3.571              1.478               -9.814              
C              -4.56               3.229               -6.723              
C              -4.449              4.66                -6.163              
C              -4.661              5.697               -7.248              
N              -5.461              6.842               -6.871              
C              -6.771              6.807               -6.793              
N              -7.387              5.643               -6.898              
N              -7.445              7.926               -6.615              
H              -4.482              4.618               -9.297              
H              -2.815              2.731               -7.727              
H              -5.512              3.058               -6.942              
H              -4.241              2.601               -6.025              
H              -5.143              4.787               -5.462              
H              -3.541              4.785               -5.778              
H              -3.748              6.015               -7.552              
H              -5.097              5.231               -8.036              
H              -4.99               7.703               -6.66               
H              -6.897              4.787               -7.014              
H              -8.403              5.616               -6.858              
H              -6.96               8.8                 -6.519              
H              -8.447              7.912               -6.573              
N              -5.573              1.53                -8.799              
C              -6.083              0.637               -9.827              
C              -6.122              1.593               -11.03              
O              -5.574              2.692               -10.915             
C              -7.443              -0.033              -9.468              
C              -7.714              -0.006              -7.962              
C              -8.906              -0.841              -7.455              
C              -8.969              -2.288              -7.94               
N              -9.919              -3.078              -7.085              
H              -6.088              1.896               -8.02               
H              -5.437              -0.06               -10.007             
H              -8.156              0.468               -9.927              
H              -7.404              -0.972              -9.766              
H              -6.876              -0.325              -7.474              
H              -7.862              0.961               -7.674              
H              -8.878              -0.845              -6.443              
H              -9.759              -0.374              -7.735              
H              -9.29               -2.302              -8.881              
H              -8.063              -2.692              -7.877              
H              -9.418              -3.46               -6.312              
H              -10.641             -2.473              -6.758              
H              -10.313             -3.813              -7.632              
N              -6.679              1.292               -12.16              
C              -6.568              2.313               -13.188             
C              -7.687              2.351               -14.21              
O              -8.297              3.407               -14.387             
C              -5.195              2.218               -13.864             
C              -4.699              3.562               -14.378             
C              -5.2                3.823               -15.791             
N              -6.226              4.856               -15.826             
C              -7.262              4.842               -16.642             
N              -7.383              3.907               -17.563             
N              -8.17               5.785               -16.541             
H              -7.136              0.41                -12.259             
H              -6.521              3.232               -12.726             
H              -4.544              1.882               -13.199             
H              -5.27               1.601               -14.634             
H              -5.037              4.288               -13.789             
H              -3.705              3.564               -14.396             
H              -4.422              4.109               -16.346             
H              -5.576              2.97                -16.146             
H              -6.136              5.629               -15.185             
H              -6.705              3.178               -17.651             
H              -8.171              3.921               -18.192             
H              -8.095              6.5                 -15.842             
H              -8.957              5.799               -17.169             
N              -7.97               1.241               -14.896             
C              -9.025              1.208               -15.907             
C              -10.381             1.554               -15.313             
O              -11.011             2.496               -15.824             
C              -8.985              -0.235              -16.429             
C              -7.637              -0.749              -16.037             
C              -7.311              -0.065              -14.747             
O              -10.788             0.895               -14.326             
H              -8.802              1.825               -16.676             
H              -9.714              -0.782              -16.008             
H              -9.101              -0.253              -17.426             
H              -7.663              -1.748              -15.921             
H              -6.959              -0.528              -16.746             
H              -7.685              -0.558              -13.963             
H              -6.324              0.051               -14.629             
H              14.3542             1.05804             0.205987            
H              17.9487             -0.277243           2.89549             
H              16.3376             1.23687             6.24877             
