304
2.xyz
C              53.794              -4.217              4.345               
O              53.871              -3.7                3.251               
N              53.148              -5.335              4.515               
C              52.492              -5.99               3.349               
C              51.05               -5.492              3.239               
O              50.23               -5.743              4.099               
C              52.511              -7.509              3.527               
C              52.111              -8.19               2.213               
C              53.195              -7.972              1.153               
C              51.945              -9.689              2.457               
H              53.118              -5.723              5.46                
H              52.988              -5.725              2.527               
H              53.418              -7.781              3.735               
H              51.852              -7.747              4.196               
H              51.253              -7.798              1.891               
H              54.055              -8.362              1.477               
H              52.921              -8.421              0.304               
H              53.308              -6.993              0.994               
H              51.233              -9.836              3.143               
H              51.684              -10.137             1.602               
H              52.81               -10.069             2.784               
N              50.734              -4.783              2.191               
C              49.345              -4.268              2.041               
C              48.634              -5.027              0.92                
O              49.245              -5.454              -0.04               
C              49.387              -2.777              1.702               
H              51.47               -4.608              1.503               
H              48.86               -4.425              2.899               
H              48.578              -2.537              1.168               
H              49.4                -2.246              2.548               
H              50.21               -2.582              1.171               
N              47.346              -5.197              1.035               
C              46.592              -5.926              -0.021              
C              45.563              -4.982              -0.649              
O              44.668              -4.495              0.013               
C              45.879              -7.129              0.605               
C              44.847              -7.663              -0.35               
H              46.897              -4.81               1.872               
H              47.24               -6.204              -0.725              
H              46.539              -7.843              0.786               
H              45.422              -6.843              1.434               
N              45.188              -8.427              -1.455              
C              43.48               -7.549              -0.38               
C              44.048              -8.74               -2.098              
N              42.977              -8.23               -1.484              
H              46.093              -8.695              -1.724              
H              42.925              -7.049              0.293               
H              44.011              -9.292              -2.943              
N              45.686              -4.718              -1.921              
C              44.718              -3.804              -2.591              
C              43.377              -4.518              -2.769              
O              43.318              -5.645              -3.221              
C              45.265              -3.399              -3.961              
O              46.462              -2.653              -3.787              
H              46.464              -5.163              -2.418              
H              44.579              -3.021              -1.988              
H              45.465              -4.215              -4.481              
H              44.596              -2.834              -4.419              
H              46.283              -1.876              -3.186              
N              42.299              -3.872              -2.418              
C              40.962              -4.514              -2.567              
C              40.393              -4.191              -3.95               
O              39.546              -4.895              -4.464              
C              40.016              -3.976              -1.491              
C              40.616              -4.231              -0.108              
C              39.816              -3.465              0.947               
C              40.562              -5.729              0.2                 
H              42.422              -2.925              -2.045              
H              41.084              -5.5                -2.491              
H              39.937              -3.017              -1.608              
H              39.182              -4.464              -1.548              
H              41.559              -3.916              -0.098              
H              38.867              -3.777              0.933               
H              40.211              -3.634              1.849               
H              39.851              -2.488              0.743               
H              41.086              -6.227              -0.49               
H              40.954              -5.895              1.104               
H              39.611              -6.035              0.185               
N              40.851              -3.131              -4.557              
C              40.335              -2.761              -5.905              
C              40.628              -3.891              -6.894              
O              39.738              -4.417              -7.532              
C              41.023              -1.479              -6.379              
O              41.021              -0.525              -5.325              
C              40.273              -0.912              -7.585              
H              41.566              -2.584              -4.067              
H              39.347              -2.645              -5.834              
H              41.993              -1.693              -6.617              
H              40.922              -0.472              -8.208              
H              39.802              -1.653              -8.067              
H              39.601              -0.238              -7.276              
H              41.855              0.04                -5.355              
N              41.87               -4.268              -7.029              
C              42.217              -5.362              -7.98               
C              42.282              -6.693              -7.228              
O              41.859              -7.719              -7.724              
C              43.577              -5.071              -8.618              
O              44.353              -4.276              -7.733              
C              43.375              -4.32               -9.935              
H              42.571              -3.783              -6.461              
H              41.493              -5.415              -8.664              
H              44.066              -5.955              -8.77               
H              42.422              -4.408              -10.23              
H              43.594              -3.351              -9.807              
H              43.976              -4.705              -10.637             
H              44.357              -4.675              -6.807              
N              42.809              -6.687              -6.034              
C              42.902              -7.952              -5.253              
C              44.317              -8.523              -5.37               
O              44.509              -9.719              -5.45               
H              43.145              -5.787              -5.676              
H              42.695              -7.758              -4.297              
H              42.244              -8.606              -5.617              
N              45.309              -7.675              -5.379              
C              46.711              -8.169              -5.489              
C              47.465              -7.845              -4.198              
O              47.043              -7.02               -3.412              
C              47.402              -7.482              -6.67               
C              46.814              -8.003              -7.983              
C              47.762              -7.668              -9.136              
H              45.075              -6.68               -5.308              
H              46.671              -9.16               -5.586              
H              47.237              -6.515              -6.622              
H              48.361              -7.7                -6.654              
H              46.722              -8.981              -7.926              
H              45.951              -7.558              -8.145              
O              48.188              -6.539              -9.279              
N              48.113              -8.608              -9.97               
H              48.719              -8.444              -10.751             
H              47.747              -9.565              -9.814              
N              48.579              -8.486              -3.971              
C              49.356              -8.209              -2.73               
C              50.654              -7.489              -3.094              
O              51.16               -7.615              -4.191              
C              49.687              -9.527              -2.023              
O              48.512              -10.044             -1.414              
C              50.755              -9.282              -0.954              
H              48.878              -9.168              -4.673              
H              48.807              -7.61               -2.152              
H              50.013              -10.201             -2.718              
H              50.92               -10.128             -0.445              
H              51.605              -8.986              -1.391              
H              50.441              -8.571              -0.323              
H              48.635              -10.127             -0.417              
N              51.199              -6.735              -2.181              
C              52.464              -6.013              -2.479              
C              52.893              -5.198              -1.26               
O              52.132              -4.418              -0.719              
H              50.721              -6.672              -1.278              
H              53.172              -6.679              -2.705              
H              52.315              -5.404              -3.256              
N              54.109              -5.369              -0.824              
C              54.59               -4.602              0.349               
C              54.371              -3.11               0.087               
O              53.928              -2.718              -0.975              
C              56.076              -4.894              0.561               
C              56.249              -6.321              1.039               
C              55.646              -6.743              2.234               
C              57.015              -7.224              0.289               
C              55.81               -8.061              2.673               
C              57.177              -8.543              0.731               
C              56.574              -8.961              1.923               
O              56.731              -10.261             2.358               
H              54.694              -6.046              -1.327              
H              54.041              -4.867              1.136               
H              56.54               -4.795              -0.295              
H              56.417              -4.292              1.254               
H              55.105              -6.109              2.768               
H              57.44               -6.931              -0.553              
H              55.379              -8.362              3.525               
H              57.722              -9.186              0.197               
H              56.393              -10.335             3.294               
N              54.662              -2.275              1.043               
C              54.45               -0.813              0.842               
C              55.293              -0.033              1.853               
O              55.465              -0.465              2.975               
C              52.973              -0.486              1.066               
C              52.497              -1.15               2.359               
C              52.149              -1.012              -0.11               
C              52.139              -0.075              3.385               
H              55.033              -2.667              1.913               
H              54.817              -0.61               -0.061              
H              52.885              0.495               1.176               
H              51.7                -1.686              2.169               
H              53.226              -1.697              2.72                
H              51.186              -0.799              0.04                
H              52.461              -0.578              -0.952              
H              52.266              -2                  -0.179              
H              51.412              0.497               3.014               
H              51.83               -0.517              4.223               
H              52.947              0.478               3.569               
N              55.78               1.105               1.432               
C              56.592              1.978               2.294               
C              55.68               2.707               3.287               
O              54.68               3.288               2.916               
C              57.254              2.944               1.308               
C              56.379              2.937               0.034               
C              55.566              1.628               0.065               
H              57.293              1.454               2.774               
H              57.295              3.876               1.681               
H              58.186              2.649               1.077               
H              55.771              3.73                0.039               
H              56.964              2.97                -0.776              
H              54.599              1.812               -0.098              
H              55.908              0.986               -0.62               
N              56.003              2.65                4.55                
C              55.142              3.304               5.576               
C              55.209              4.83                5.461               
O              54.318              5.527               5.906               
C              55.61               2.88                6.968               
O              57.01               2.639               6.938               
H              56.862              2.142               4.789               
H              54.197              3.018               5.401               
H              55.421              3.609               7.607               
H              55.144              2.047               7.223               
H              57.195              1.826               6.388               
N              56.248              5.366               4.883               
C              56.343              6.843               4.77                
C              55.362              7.347               3.708               
O              55.059              8.521               3.639               
C              57.769              7.223               4.381               
C              58.036              6.782               2.946               
H              56.966              4.73                4.526               
H              56.048              7.218               5.648               
H              57.863              8.199               4.431               
H              58.396              6.754               4.975               
O              57.409              5.865               2.459               
N              58.948              7.399               2.246               
H              59.46               8.159               2.689               
H              59.149              7.148               1.31                
N              54.858              6.47                2.881               
C              53.896              6.911               1.832               
C              52.471              6.55                2.259               
O              51.516              6.847               1.567               
C              54.225              6.223               0.504               
C              55.006              7.176               -0.372              
C              56.201              7.731               0.097               
C              54.536              7.507               -1.651              
C              56.927              8.616               -0.709              
C              55.264              8.395               -2.457              
C              56.459              8.948               -1.984              
O              57.177              9.821               -2.776              
H              55.153              5.497               2.993               
H              53.962              7.904               1.757               
H              54.781              5.44                0.689               
H              53.386              6.001               0.053               
H              56.537              7.501               1.001               
H              53.695              7.116               -1.986              
H              57.783              9.011               -0.373              
H              54.93               8.632               -3.366              
H              57.14               9.508               -3.722              
N              52.317              5.92                3.396               
C              50.951              5.552               3.867               
C              50.717              6.139               5.256               
O              51.631              6.602               5.91                
C              50.81               4.029               3.932               
C              51.947              3.438               4.766               
C              49.475              3.661               4.578               
H              53.166              5.702               3.926               
H              50.296              5.962               3.236               
H              50.914              3.67                3.012               
H              51.682              2.531               5.091               
H              52.768              3.365               4.202               
H              52.129              4.034               5.547               
H              49.154              2.796               4.196               
H              49.603              3.569               5.564               
H              48.81               4.382               4.388               
N              49.499              6.121               5.708               
C              49.196              6.676               7.057               
C              47.966              5.969               7.638               
O              47.049              5.631               6.915               
C              48.914              8.175               6.938               
H              48.778              5.715               5.102               
H              49.979              6.502               7.65                
H              49.619              8.684               7.428               
H              48.92               8.437               5.975               
H              48.02               8.375               7.334               
N              47.984              5.768               8.932               
C              46.882              5.104               9.648               
C              45.722              6.08                9.862               
O              45.807              6.994               10.658              
C              47.512              4.704               10.985              
C              48.728              5.639               11.191              
C              49.105              6.184               9.8                 
H              46.575              4.289               9.151               
H              46.866              4.824               11.745              
H              47.822              3.749               10.973              
H              48.477              6.385               11.807              
H              49.486              5.121               11.585              
H              49.187              7.179               9.824               
H              49.966              5.784               9.488               
N              44.639              5.894               9.159               
C              43.477              6.812               9.324               
C              42.644              6.367               10.528              
O              43.136              5.557               11.297              
C              42.613              6.773               8.064               
O              43.251              5.968               7.082               
O              41.53               6.844               10.662              
H              44.634              5.104               8.507               
H              43.838              7.722               9.512               
H              41.736              6.376               8.287               
H              42.514              7.692               7.713               
H              43.187              5.008               7.348               
H              54.2449             -3.77029            5.20213             
