269
5.xyz
C              46.871              6.519               2.442               
O              48.074              6.344               2.246               
N              46.005              5.525               2.602               
C              46.396              4.122               2.54                
C              45.12               3.309               2.397               
O              44.025              3.868               2.36                
C              47.108              3.695               3.823               
C              46.217              3.762               5.05                
C              46.634              2.761               6.111               
N              45.708              2.772               7.24                
C              45.691              1.859               8.206               
N              44.81               1.956               9.194               
N              46.549              0.847               8.183               
H              45.021              5.834               2.776               
H              46.961              3.978               1.737               
H              47.414              2.758               3.713               
H              47.88               4.301               3.968               
H              46.267              4.677               5.448               
H              45.274              3.562               4.787               
H              46.641              1.857               5.7                 
H              47.543              3.007               6.429               
H              45.037              3.522               7.29                
H              44.141              2.692               9.221               
H              44.817              1.269               9.933               
H              47.197              0.767               7.42                
H              46.551              0.171               8.915               
N              45.258              1.993               2.312               
C              44.087              1.136               2.2                 
C              43.636              0.76                3.606               
O              44.346              0.043               4.304               
C              44.418              -0.152              1.44                
H              46.228              1.646               2.332               
H              43.355              1.654               1.767               
H              45.083              -0.675              1.99                
H              43.572              -0.699              1.374               
N              42.472              1.24                4.037               
C              42.001              0.868               5.368               
C              41.835              -0.652              5.322               
O              41.101              -1.177              4.488               
C              40.666              1.539               5.693               
C              40.275              1.39                7.156               
C              38.955              2.066               7.487               
C              38.631              1.884               8.967               
N              37.334              2.503               9.361               
H              41.971              1.852               3.394               
H              42.691              1.092               6.033               
H              40.744              2.506               5.487               
H              39.961              1.118               5.135               
H              40.201              0.41                7.375               
H              40.998              1.791               7.729               
H              39.031              3.033               7.298               
H              38.235              1.649               6.954               
H              38.601              0.897               9.172               
H              39.372              2.296               9.513               
H              37.369              2.759               10.326              
H              37.173              3.317               8.804               
H              36.596              1.845               9.215               
N              42.523              -1.38               6.215               
C              42.473              -2.845              6.28                
C              41.092              -3.495              6.353               
O              40.777              -4.397              5.576               
C              43.323              -3.161              7.508               
C              44.318              -2.046              7.515               
C              43.441              -0.85               7.239               
H              43.012              -3.249              5.494               
H              42.769              -3.15               8.336               
H              43.775              -4.043              7.41                
H              44.755              -1.969              8.4                 
H              44.988              -2.168              6.796               
H              42.939              -0.572              8.05                
H              43.968              -0.088              6.878               
N              40.275              -3.052              7.3                 
C              38.943              -3.619              7.465               
C              37.933              -2.532              7.796               
O              38.236              -1.58               8.516               
C              38.917              -4.68               8.594               
C              39.922              -5.79               8.3                 
C              39.226              -4.026              9.923               
H              40.655              -2.294              7.891               
H              38.671              -4.041              6.593               
H              38.015              -5.095              8.594               
H              39.51               -6.676              8.511               
H              40.176              -5.761              7.334               
H              40.737              -5.658              8.863               
H              39.745              -3.184              9.769               
H              38.371              -3.808              10.395              
H              39.767              -4.653              10.486              
N              36.725              -2.673              7.266               
C              35.69               -1.688              7.518               
C              34.328              -2.302              7.285               
O              34.149              -3.103              6.372               
C              35.861              -0.493              6.589               
C              34.951              0.653               6.952               
H              36.595              -3.514              6.682               
H              35.743              -1.442              8.49                
H              36.806              -0.182              6.646               
H              35.653              -0.785              5.658               
O              35.172              1.342               7.951               
N              33.914              0.866               6.148               
H              33.77               0.273               5.354               
H              33.279              1.614               6.335               
N              33.364              -1.913              8.11                
C              32.012              -2.434              7.99                
C              31.004              -1.339              7.661               
O              31.082              -0.232              8.188               
C              31.579              -3.123              9.298               
O              32.443              -4.236              9.556               
C              30.138              -3.602              9.203               
H              33.653              -1.223              8.828               
H              31.994              -3.114              7.241               
H              31.675              -2.46               10.066              
H              30.116              -4.552              8.882               
H              29.702              -3.55               10.104              
H              29.63               -3.026              8.559               
H              32.053              -5.078              9.169               
N              30.067              -1.659              6.773               
C              29.011              -0.734              6.385               
C              27.702              -1.324              6.896               
O              27.483              -2.534              6.803               
C              28.961              -0.579              4.856               
C              30.095              0.227               4.294               
C              30.1                1.612               4.4                 
C              31.166              -0.401              3.676               
C              31.159              2.363               3.895               
C              32.234              0.342               3.165               
C              32.228              1.725               3.275               
H              30.154              -2.623              6.382               
H              29.16               0.109               6.885               
H              29                  -1.484              4.463               
H              28.115              -0.122              4.63                
H              29.341              2.08                4.843               
H              31.179              -1.397              3.593               
H              31.143              3.364               3.981               
H              33.003              -0.136              2.717               
H              32.986              2.264               2.913               
N              26.85               -0.472              7.456               
C              25.561              -0.908              7.987               
C              24.448              -0.383              7.082               
O              24.41               0.8                 6.758               
C              25.369              -0.392              9.422               
C              24.042              -0.889              9.983               
C              26.526              -0.857              10.293              
H              27.174              0.515               7.483               
H              25.533              -1.906              7.963               
H              25.314              0.599               9.384               
H              23.293              -0.361              9.583               
H              23.926              -1.856              9.757               
H              24.037              -0.775              10.976              
H              27.047              -0.062              10.603              
H              26.166              -1.353              11.083              
H              27.119              -1.46               9.76                
N              23.529              -1.265              6.7                 
C              22.457              -0.886              5.785               
C              21.118              -0.489              6.393               
O              20.159              -0.206              5.671               
C              22.267              -2.01               4.773               
C              23.538              -2.41               4.092               
H              23.638              -2.213              7.096               
H              22.794              -0.089              5.218               
H              21.893              -2.816              5.242               
H              21.613              -1.713              4.071               
N              24.299              -1.521              3.363               
C              24.193              -3.593              4.046               
C              25.37               -2.141              2.899               
N              25.328              -3.399              3.298               
H              24.074              -0.559              3.211               
H              23.907              -4.446              4.473               
H              26.086              -1.73               2.342               
N              21.051              -0.455              7.715               
C              19.824              -0.067              8.391               
C              19.731              1.458               8.376               
O              20.668              2.146               7.961               
C              19.838              -0.563              9.839               
C              20.033              -2.061              10.016              
C              18.936              -2.899              9.385               
O              17.806              -2.391              9.219               
O              19.2                -4.079              9.068               
H              21.921              -0.72               8.208               
H              19.036              -0.452              7.919               
H              20.585              -0.108              10.304              
H              18.968              -0.325              10.246              
H              20.884              -2.314              9.586               
H              20.04               -2.261              10.982              
N              18.6                1.991               8.824               
C              18.417              3.435               8.858               
C              19.328              4.071               9.899               
O              19.764              3.41                10.843              
C              16.967              3.774               9.189               
O              16.617              3.263               10.464              
H              17.886              1.312               9.136               
H              18.672              3.805               7.957               
H              16.86               4.762               9.196               
H              16.376              3.364               8.503               
H              17.447              3.088               10.992              
N              19.616              5.354               9.724               
C              20.462              6.074               10.665              
C              19.793              6.054               12.033              
O              20.455              5.904               13.056              
C              20.659              7.525               10.216              
C              21.477              8.397               11.175              
C              22.877              7.818               11.333              
C              21.55               9.818               10.644              
H              19.197              5.787               8.881               
H              21.339              5.604               10.735              
H              21.135              7.514               9.346               
H              19.765              7.941               10.126              
H              21.024              8.416               12.062              
H              23.33               7.793               10.442              
H              23.406              8.391               11.959              
H              22.815              6.89                11.702              
H              20.626              10.195              10.563              
H              22.085              10.385              11.273              
H              21.988              9.818               9.744               
N              18.473              6.2                 12.04               
C              17.723              6.201               13.287              
C              17.909              4.888               14.039              
O              18.093              4.888               15.256              
C              16.245              6.445               13.012              
H              18.038              6.31                11.107              
H              18.058              6.953               13.869              
H              16.12               6.684               12.05               
H              15.726              5.617               13.22               
H              15.918              7.195               13.586              
N              17.865              3.767               13.325              
C              18.035              2.475               13.984              
C              19.44               2.282               14.534              
O              19.612              1.707               15.605              
C              17.695              1.323               13.038              
C              16.203              1.142               12.857              
O              15.433              1.792               13.598              
O              15.801              0.342               11.985              
H              17.708              3.886               12.318              
H              17.402              2.459               14.774              
H              18.104              1.521               12.155              
H              18.076              0.49                13.42               
N              20.445              2.752               13.805              
C              21.822              2.608               14.263              
C              22.101              3.541               15.444              
O              22.759              3.152               16.413              
C              22.81               2.877               13.102              
C              24.249              2.824               13.609              
C              22.603              1.836               12.015              
H              20.176              3.21                12.922              
H              21.952              1.663               14.581              
H              22.649              3.802               12.779              
H              24.623              1.911               13.452              
H              24.799              3.499               13.118              
H              24.264              3.028               14.587              
H              23.492              1.498               11.707              
H              22.064              1.077               12.381              
H              22.117              2.252               11.246              
N              21.587              4.766               15.38               
C              21.788              5.717               16.465              
C              21.204              7.082               16.087              
C              22.036              7.839               15.061              
C              21.392              9.142               14.618              
H              21.052              4.975               14.522              
H              22.772              5.787               16.642              
H              20.29               6.946               15.707              
H              21.141              7.644               16.913              
H              22.929              8.047               15.463              
H              22.161              7.256               14.257              
O              22.082              10.078              14.209              
N              20.068              9.202               14.683              
H              19.569              10.046              14.417              
H              19.554              8.383               15.006              
H              44.8206             -0.0438177          0.446851            
H              46.4648             7.49967             2.49784             
H              21.3104             5.34358             17.3806             
