232
2.xyz
C              19.291              -6.185              20.312              
C              18.888              -7.008              19.097              
O              18.864              -8.235              19.146              
C              18.047              -5.689              21.052              
C              18.351              -5.112              22.415              
C              18.958              -5.891              23.395              
C              18.03               -3.794              22.725              
C              19.239              -5.368              24.656              
C              18.306              -3.259              23.982              
C              18.912              -4.056              24.941              
O              19.198              -3.536              26.183              
H              19.839              -6.767              20.917              
H              17.618              -4.981              20.501              
H              17.427              -6.458              21.17               
H              19.198              -6.842              23.196              
H              17.594              -3.218              22.035              
H              19.677              -5.943              25.349              
H              18.069              -2.313              24.188              
H              19.907              -2.839              26.091              
N              18.585              -6.319              18.003              
C              18.201              -6.988              16.767              
C              19.412              -7.135              15.856              
O              20.393              -6.403              15.983              
C              17.131              -6.175              16.036              
O              16.009              -5.932              16.867              
H              18.644              -5.289              18.104              
H              17.874              -7.908              16.997              
H              17.524              -5.302              15.759              
H              16.834              -6.685              15.232              
H              16.142              -6.386              17.747              
N              19.353              -8.096              14.943              
C              20.442              -8.276              14                  
C              20.241              -7.19               12.951              
O              19.127              -6.695              12.762              
C              20.394              -9.655              13.314              
O              19.176              -9.783              12.574              
C              20.473              -10.766             14.348              
H              18.502              -8.676              14.964              
H              21.298              -8.111              14.46               
H              21.174              -9.723              12.659              
H              20.126              -10.437             15.229              
H              19.921              -11.549             14.05               
H              21.425              -11.06              14.46               
H              19.372              -9.954              11.602              
N              21.324              -6.809              12.284              
C              21.261              -5.781              11.259              
C              21.957              -6.222              9.986               
O              22.901              -7.016              10.018              
C              21.918              -4.493              11.755              
C              21.189              -3.828              12.903              
S              21.891              -2.217              13.285              
C              20.625              -1.548              14.356              
H              22.198              -7.3                12.554              
H              20.289              -5.612              11.042              
H              22.861              -4.702              12.051              
H              21.972              -3.839              10.987              
H              20.201              -3.744              12.659              
H              21.228              -4.443              13.718              
H              20.882              -0.624              14.645              
H              19.753              -1.51               13.865              
H              20.524              -2.131              15.164              
N              21.481              -5.689              8.867               
C              22.055              -5.977              7.563               
C              23.354              -5.185              7.468               
O              23.35               -3.964              7.624               
C              21.096              -5.523              6.465               
O              21.66               -5.71               5.177               
H              20.666              -5.051              9.005               
H              22.282              -6.942              7.525               
H              20.256              -6.055              6.53                
H              20.896              -4.555              6.592               
H              21.148              -5.173              4.509               
N              24.458              -5.884              7.225               
C              25.759              -5.232              7.12                
C              26.627              -5.844              6.027               
O              26.329              -6.911              5.492               
C              26.546              -5.328              8.448               
C              26.885              -6.792              8.746               
C              25.731              -4.715              9.59                
C              27.815              -6.987              9.926               
H              24.317              -6.904              7.12                
H              25.576              -4.279              6.842               
H              27.396              -4.831              8.334               
H              26.032              -7.284              8.92                
H              27.315              -7.184              7.931               
H              26.262              -4.759              10.433              
H              25.523              -3.764              9.373               
H              24.883              -5.227              9.7                 
H              27.39               -6.61               10.747              
H              27.986              -7.963              10.054              
H              28.677              -6.516              9.748               
N              27.71               -5.154              5.698               
C              28.646              -5.64               4.697               
C              30.048              -5.399              5.233               
O              30.401              -4.268              5.566               
C              28.48               -4.9                3.354               
O              27.179              -5.171              2.822               
C              29.536              -5.364              2.352               
H              27.828              -4.256              6.207               
H              28.515              -6.619              4.583               
H              28.554              -3.898              3.521               
H              30.444              -5.309              2.77                
H              29.352              -6.311              2.083               
H              29.51               -4.779              1.54                
H              26.639              -5.713              3.475               
N              30.827              -6.47               5.344               
C              32.196              -6.372              5.834               
C              33.158              -6.286              4.665               
O              33.021              -7.014              3.68                
C              32.564              -7.59               6.685               
C              31.794              -7.65               7.985               
O              31.706              -6.613              8.677               
O              31.287              -8.739              8.324               
H              30.383              -7.364              5.057               
H              32.268              -5.51               6.343               
H              32.363              -8.406              6.154               
H              33.535              -7.539              6.888               
N              34.134              -5.394              4.785               
C              35.139              -5.206              3.755               
C              36.494              -5.565              4.337               
O              36.864              -5.077              5.404               
C              35.155              -3.757              3.298               
S              33.611              -3.204              2.517               
H              34.114              -4.848              5.674               
H              34.945              -5.833              3.003               
H              35.323              -3.176              4.092               
H              35.893              -3.643              2.635               
N              37.228              -6.421              3.637               
C              38.542              -6.848              4.096               
C              39.538              -6.794              2.948               
O              39.344              -7.436              1.917               
C              38.463              -8.271              4.652               
C              39.806              -8.881              5.02                
C              39.643              -10.331             5.451               
N              40.924              -11.024             5.549               
C              41.057              -12.313             5.85                
N              39.985              -13.057             6.087               
N              42.263              -12.862             5.907               
H              36.793              -6.751              2.755               
H              38.852              -6.226              4.821               
H              37.896              -8.254              5.473               
H              38.039              -8.852              3.961               
H              40.41               -8.857              4.231               
H              40.204              -8.376              5.778               
H              39.194              -10.34              6.341               
H              39.07               -10.79              4.776               
H              41.762              -10.492             5.378               
H              39.067              -12.674             6.025               
H              40.098              -14.028             6.333               
H              43.071              -12.303             5.702               
H              42.369              -13.823             6.15                
N              40.606              -6.024              3.13                
C              41.622              -5.887              2.095               
C              42.18               -7.252              1.704               
O              42.495              -8.072              2.567               
C              42.761              -4.987              2.585               
C              43.699              -4.552              1.473               
C              44.856              -3.706              1.965               
O              45.522              -3.078              1.118               
O              45.101              -3.672              3.19                
H              40.65               -5.544              4.046               
H              41.224              -5.444              1.284               
H              42.358              -4.18               2.97                
H              43.285              -5.497              3.237               
H              44.077              -5.359              1.055               
H              43.187              -4.01               0.83                
N              42.295              -7.492              0.4                 
C              42.821              -8.76               -0.098              
C              44.328              -8.821              0.122               
O              44.964              -7.807              0.41                
C              42.545              -8.94               -1.607              
O              43.255              -7.941              -2.348              
C              41.06               -8.814              -1.897              
H              41.986              -6.718              -0.216              
H              42.395              -9.507              0.418               
H              42.889              -9.856              -1.895              
H              40.92               -8.306              -2.751              
H              40.651              -9.725              -1.989              
H              40.606              -8.326              -1.148              
H              42.869              -7.03               -2.167              
N              44.894              -10.015             -0.022              
C              46.322              -10.182             0.17                
C              47.154              -9.584              -0.948              
O              48.302              -9.197              -0.733              
H              44.249              -10.78              -0.273              
H              46.595              -9.755              1.054               
H              46.537              -11.175             0.251               
N              46.578              -9.507              -2.143              
C              47.278              -8.959              -3.299              
C              46.972              -7.477              -3.502              
O              47.377              -6.881              -4.501              
C              46.896              -9.74               -4.557              
O              45.501              -9.674              -4.792              
H              45.603              -9.865              -2.181              
H              48.271              -9.049              -3.136              
H              47.376              -9.348              -5.336              
H              47.16               -10.692             -4.435              
H              45.081              -9.05               -4.134              
N              46.253              -6.888              -2.551              
C              45.896              -5.476              -2.622              
C              47.127              -4.6                -2.438              
O              47.906              -4.802              -1.509              
C              44.872              -5.135              -1.539              
O              44.577              -3.748              -1.531              
H              45.973              -7.511              -1.768              
H              45.521              -5.294              -3.537              
H              44.034              -5.643              -1.717              
H              45.246              -5.391              -0.652              
H              44.479              -3.434              -0.588              
N              47.297              -3.626              -3.325              
C              48.434              -2.72               -3.244              
C              49.534              -3.167              -4.214              
C              50.238              -4.454              -3.793              
C              51.004              -4.261              -2.491              
C              51.497              -5.585              -1.925              
N              52.348              -6.34               -2.887              
H              46.568              -3.57               -4.06               
H              48.832              -2.777              -2.312              
H              49.12               -3.315              -5.107              
H              50.215              -2.441              -4.268              
H              49.555              -5.17               -3.663              
H              50.879              -4.724              -4.509              
H              51.792              -3.678              -2.665              
H              50.401              -3.835              -1.823              
H              52.028              -5.403              -1.089              
H              50.7                -6.149              -1.678              
H              52.51               -5.778              -3.697              
H              53.22               -6.563              -2.453              
H              51.88               -7.182              -3.152              
H              48.1618             -1.67657            -3.44148            
H              33.4348             -4.07505            1.54946             
H              19.8893             -5.36394            20.0048             
