203
4.xyz
C              24.356              -2.905              25.6                
O              25.201              -3.026              24.717              
N              24.63               -2.396              26.796              
C              25.963              -1.916              27.158              
C              26.921              -3.101              27.29               
O              26.69               -4.012              28.089              
C              25.886              -1.165              28.492              
C              27.144              -0.359              28.805              
H              23.819              -2.368              27.452              
H              26.294              -1.356              26.397              
H              25.111              -0.537              28.457              
H              25.75               -1.832              29.222              
O              27.387              -0.017              29.963              
N              27.93               -0.033              27.783              
H              27.667              -0.32               26.856              
H              28.763              0.486               27.931              
N              27.989              -3.091              26.499              
C              28.986              -4.154              26.547              
C              30.37               -3.526              26.527              
O              30.535              -2.378              26.115              
C              28.865              -5.132              25.345              
C              27.496              -5.785              25.34               
C              29.118              -4.406              24.031              
H              28.05               -2.277              25.857              
H              28.879              -4.644              27.41               
H              29.536              -5.851              25.481              
H              26.791              -5.089              25.483              
H              27.342              -6.236              24.46               
H              27.444              -6.464              26.074              
H              29.881              -4.842              23.555              
H              28.296              -4.454              23.464              
H              29.342              -3.45               24.22               
N              31.365              -4.276              26.976              
C              32.723              -3.761              26.992              
C              33.256              -3.583              25.572              
O              33.006              -4.403              24.685              
C              33.636              -4.702              27.777              
H              31.1                -5.218              27.299              
H              32.728              -2.863              27.448              
H              33.674              -4.407              28.73               
H              33.274              -5.631              27.728              
H              34.553              -4.679              27.383              
N              33.985              -2.497              25.367              
C              34.601              -2.212              24.08               
C              35.891              -3.016              23.965              
O              36.509              -3.348              24.971              
C              34.997              -0.752              23.997              
S              33.679              0.481               24.06               
H              34.078              -1.872              26.196              
H              33.982              -2.514              23.357              
H              35.643              -0.559              24.757              
H              35.512              -0.617              23.131              
N              36.321              -3.291              22.741              
C              37.562              -4.031              22.549              
C              38.753              -3.33               23.21               
O              39.689              -3.99               23.656              
C              37.844              -4.222              21.058              
C              36.964              -5.259              20.398              
C              37.253              -5.367              18.911              
C              36.467              -6.511              18.292              
N              36.604              -6.543              16.809              
H              35.727              -2.951              21.973              
H              37.464              -4.949              22.96               
H              37.701              -3.346              20.601              
H              38.797              -4.502              20.957              
H              37.128              -6.151              20.823              
H              36.004              -5.005              20.522              
H              36.984              -4.521              18.468              
H              38.221              -5.541              18.781              
H              36.801              -7.378              18.672              
H              35.497              -6.406              18.53               
H              35.806              -6.996              16.413              
H              36.666              -5.608              16.462              
H              37.432              -7.047              16.564              
N              38.717              -2                  23.289              
C              39.821              -1.255              23.888              
C              39.722              -1.104              25.407              
O              40.564              -0.452              26.023              
C              39.948              0.126               23.222              
C              38.92               1.132               23.722              
H              37.868              -1.559              22.902              
H              40.672              -1.78               23.7                
H              40.86               0.482               23.413              
H              39.827              0.01                22.239              
O              37.882              0.772               24.281              
N              39.204              2.412               23.502              
H              40.047              2.666               23.028              
H              38.572              3.125               23.811              
N              38.706              -1.714              26.008              
C              38.545              -1.636              27.45               
C              37.617              -0.547              27.951              
O              37.275              -0.512              29.137              
H              38.067              -2.228              25.381              
H              38.211              -2.545              27.798              
H              39.47               -1.51               27.882              
N              37.221              0.368               27.07               
C              36.307              1.422               27.474              
C              34.928              0.817               27.684              
O              34.663              -0.3                27.231              
C              36.268              2.535               26.428              
C              37.477              3.454               26.533              
C              37.382              4.665               25.63               
H              37.605              0.264               26.121              
H              36.618              1.787               28.35               
H              36.266              2.127               25.523              
H              35.45               3.081               26.568              
H              37.558              3.767               27.481              
H              38.296              2.933               26.286              
O              37.778              4.619               24.467              
N              36.851              5.758               26.165              
H              36.766              6.617               25.624              
H              36.527              5.726               27.13               
N              34.056              1.545               28.369              
C              32.719              1.038               28.67               
C              31.594              1.706               27.893              
O              30.421              1.564               28.252              
C              32.399              1.197               30.17               
O              32.236              2.586               30.476              
C              33.528              0.63                31.02               
H              34.394              2.477               28.664              
H              32.704              0.038               28.456              
H              31.52               0.721               30.37               
H              33.197              0.454               31.95               
H              33.856              -0.228              30.62               
H              34.285              1.285               31.059              
H              32.845              3.145               29.903              
N              31.94               2.423               26.831              
C              30.941              3.129               26.044              
C              30.502              2.419               24.766              
O              30.206              3.072               23.765              
C              31.456              4.535               25.714              
C              32.67               4.516               24.813              
H              32.953              2.434               26.62               
H              30.108              3.221               26.63               
H              30.725              5.036               25.257              
H              31.698              4.987               26.569              
O              33.586              3.713               25                  
N              32.692              5.414               23.832              
H              31.933              6.057               23.728              
H              33.465              5.447               23.2                
N              30.454              1.089               24.805              
C              30.018              0.307               23.649              
C              28.655              -0.304              23.888              
O              28.283              -0.622              25.024              
C              31.045              -0.78               23.293              
S              32.484              -0.005              22.493              
H              30.746              0.667               25.705              
H              29.954              0.929               22.858              
H              31.346              -1.205              24.115              
H              30.638              -1.395              22.657              
N              27.904              -0.451              22.805              
C              26.56               -0.986              22.869              
C              26.3                -1.952              21.734              
O              26.712              -1.717              20.591              
C              25.547              0.159               22.817              
C              25.799              1.207               23.872              
C              26.774              2.187               23.687              
C              25.14               1.155               25.1                
C              27.094              3.084               24.696              
C              25.456              2.046               26.115              
C              26.435              3.006               25.909              
O              26.769              3.882               26.917              
H              28.362              -0.151              21.917              
H              26.458              -1.488              23.74               
H              25.609              0.59                21.925              
H              24.641              -0.22               22.962              
H              27.253              2.244               22.808              
H              24.433              0.469               25.248              
H              27.795              3.782               24.546              
H              24.98               1.997               26.994              
H              27.264              4.656               26.527              
N              25.611              -3.036              22.06               
C              25.279              -4.068              21.087              
C              23.8                -3.978              20.734              
O              22.957              -3.821              21.613              
C              25.596              -5.443              21.673              
C              25.311              -6.595              20.742              
C              25.779              -7.903              21.325              
H              25.329              -3.087              23.063              
H              25.805              -3.891              20.253              
H              26.57               -5.468              21.919              
H              25.049              -5.568              22.507              
H              24.328              -6.648              20.584              
H              25.786              -6.44               19.879              
O              26.902              -8                  21.815              
N              24.928              -8.92               21.27               
H              25.179              -9.838              21.631              
H              24.007              -8.768              20.857              
N              23.489              -4.079              19.445              
C              22.104              -4                  18.995              
C              21.341              -5.248              19.418              
O              21.854              -6.359              19.333              
C              22.046              -3.836              17.465              
O              22.565              -4.968              16.788              
H              24.293              -4.215              18.809              
H              21.675              -3.209              19.441              
H              21.094              -3.703              17.197              
H              22.582              -3.032              17.213              
H              21.811              -5.524              16.442              
N              20.113              -5.057              19.89               
H              19.804              -4.073              19.93               
H              19.5426             -5.83969            20.1828             
H              23.3495             -3.22887            25.4499             
