375
2.xyz
C              21.982              1.791               11.362              
O              22.288              1.255               10.299              
N              22.444              2.991               11.707              
C              23.287              3.749               10.775              
C              24.714              3.246               10.581              
O              25.545              3.365               11.473              
C              23.338              5.224               11.18               
C              23.947              6.128               10.109              
C              24.151              7.549               10.617              
C              22.855              8.16                11.124              
N              23.075              9.503               11.734              
H              22.172              3.324               12.637              
H              22.82               3.758               9.857               
H              22.409              5.533               11.356              
H              23.889              5.303               12.005              
H              24.833              5.752               9.834               
H              23.335              6.151               9.318               
H              24.808              7.531               11.365              
H              24.497              8.111               9.871               
H              22.215              8.249               10.357              
H              22.453              7.549               11.812              
H              22.959              9.439               12.724              
H              24.001              9.813               11.524              
H              22.411              10.149              11.359              
N              24.995              2.713               9.392               
C              26.325              2.199               9.065               
C              27.29               3.382               8.932               
O              27.073              4.286               8.117               
C              26.265              1.418               7.743               
C              27.552              0.66                7.432               
H              24.197              2.695               8.725               
H              26.634              1.658               9.843               
H              25.518              0.761               7.801               
H              26.093              2.065               7.004               
O              27.822              0.337               6.272               
N              28.336              0.354               8.461               
H              28.056              0.622               9.387               
H              29.19               -0.135              8.317               
N              28.339              3.377               9.749               
C              29.35               4.43                9.734               
C              30.731              3.789               9.782               
O              30.881              2.649               10.213              
C              29.21               5.385               10.95               
C              27.849              6.071               10.925              
C              29.394              4.615               12.25               
H              28.377              2.56                10.398              
H              29.27               4.929               8.872               
H              29.897              6.094               10.852              
H              27.972              7.058               11.028              
H              27.396              5.88                10.055              
H              27.288              5.725               11.676              
H              28.846              5.044               12.968              
H              29.096              3.67                12.119              
H              30.36               4.63                12.509              
N              31.741              4.52                9.34                
C              33.091              3.984               9.36                
C              33.61               3.856               10.788              
O              33.365              4.716               11.634              
C              34.023              4.887               8.545               
H              31.496              5.459               8.997               
H              33.086              3.067               8.939               
H              33.479              5.565               8.055               
H              34.657              5.348               9.162               
H              34.533              4.33                7.893               
N              34.316              2.763               11.053              
C              34.917              2.54                12.361              
C              36.179              3.39                12.444              
O              36.772              3.715               11.422              
C              35.345              1.093               12.517              
S              34.052              -0.171              12.421              
H              34.4                2.095               10.262              
H              34.283              2.856               13.059              
H              36.033              0.89                11.801              
H              35.808              0.998               13.415              
N              36.606              3.721               13.658              
C              37.815              4.518               13.831              
C              39.027              3.847               13.183              
O              39.93               4.531               12.698              
C              38.088              4.748               15.32               
C              37.06               5.631               16.006              
C              37.24               5.597               17.513              
C              37.813              6.896               18.041              
N              36.83               8.003               17.894              
H              36.027              3.376               14.439              
H              37.678              5.419               13.398              
H              38.095              3.86                15.775              
H              38.984              5.179               15.408              
H              37.172              6.57                15.688              
H              36.145              5.304               15.781              
H              36.352              5.443               17.94               
H              37.863              4.855               17.747              
H              38.04               6.785               19.008              
H              38.641              7.122               17.528              
H              36.037              7.822               18.475              
H              37.256              8.864               18.169              
H              36.539              8.064               16.94               
N              39.044              2.516               13.164              
C              40.168              1.79                12.58               
C              40.079              1.641               11.07               
O              40.931              0.999               10.455              
C              40.322              0.405               13.226              
C              39.156              -0.525              12.931              
H              38.22               2.059               13.585              
H              41.005              2.332               12.776              
H              41.158              -0.012              12.876              
H              40.39               0.527               14.214              
O              38.288              -0.224              12.115              
N              39.141              -1.677              13.599              
H              39.867              -1.884              14.254              
H              38.404              -2.334              13.446              
N              39.051              2.228               10.469              
C              38.908              2.139               9.028               
C              38.015              1.015               8.544               
O              37.637              0.992               7.374               
H              38.399              2.726               11.088              
H              38.546              3.03                8.672               
H              39.836              2.033               8.605               
N              37.691              0.071               9.422               
C              36.809              -1.021              9.036               
C              35.426              -0.44               8.764               
O              35.087              0.637               9.257               
C              36.745              -2.082              10.134              
C              37.995              -2.942              10.228              
C              38.352              -3.58               8.9                 
H              38.103              0.178               10.36               
H              37.149              -1.411              8.185               
H              36.614              -1.626              11.015              
H              35.965              -2.685              9.954               
H              38.757              -2.369              10.521              
H              37.837              -3.665              10.898              
O              39.118              -3.019              8.111               
N              37.784              -4.751              8.636               
H              37.965              -5.233              7.758               
H              37.161              -5.163              9.329               
N              34.627              -1.162              7.988               
C              33.303              -0.688              7.597               
C              32.123              -1.213              8.401               
O              30.981              -0.824              8.143               
C              33.032              -1.044              6.13                
O              32.987              -2.471              5.996               
C              34.138              -0.5                5.236               
H              35.018              -2.077              7.688               
H              33.302              0.341               7.667               
H              32.123              -0.672              5.861               
H              34.228              0.489               5.371               
H              35.008              -0.943              5.464               
H              33.918              -0.682              4.275               
H              32.787              -2.899              6.884               
N              32.388              -2.075              9.376               
C              31.318              -2.686              10.155              
C              30.891              -2.005              11.448              
O              30.629              -2.681              12.444              
C              31.678              -4.147              10.446              
C              32.925              -4.284              11.3                
H              33.393              -2.269              9.53                
H              30.483              -2.709              9.544               
H              30.915              -4.568              10.928              
H              31.834              -4.61               9.578               
O              33.953              -3.664              11.025              
N              32.846              -5.114              12.335              
H              31.995              -5.612              12.51               
H              33.632              -5.242              12.937              
N              30.815              -0.678              11.441              
C              30.373              0.043               12.627              
C              28.993              0.634               12.406              
O              28.596              0.929               11.273              
C              31.392              1.122               13.036              
S              32.775              0.33                13.916              
H              31.086              -0.224              10.557              
H              30.318              -0.609              13.39               
H              31.743              1.539               12.231              
H              30.958              1.742               13.648              
N              28.248              0.774               13.495              
C              26.895              1.293               13.422              
C              26.599              2.272               14.541              
O              26.956              2.044               15.702              
C              25.895              0.134               13.457              
C              26.144              -0.879              12.367              
C              27.139              -1.848              12.506              
C              25.46               -0.805              11.156              
C              27.455              -2.714              11.464              
C              25.768              -1.664              10.105              
C              26.767              -2.612              10.265              
O              27.097              -3.444              9.219               
H              28.708              0.486               14.379              
H              26.789              1.781               12.54               
H              25.977              -0.321              14.334              
H              24.984              0.506               13.337              
H              27.637              -1.922              13.372              
H              24.738              -0.128              11.039              
H              28.169              -3.402              11.58               
H              25.272              -1.597              9.241               
H              27.568              -4.248              9.576               
N              25.941              3.364               14.172              
C              25.583              4.418               15.111              
C              24.094              4.36                15.432              
O              23.262              4.233               14.535              
C              25.923              5.778               14.499              
C              25.672              6.957               15.424              
C              26.183              8.256               14.844              
H              25.703              3.402               13.155              
H              26.087              4.259               15.965              
H              26.893              5.782               14.245              
H              25.368              5.906               13.673              
H              24.689              7.04                15.578              
H              26.136              6.788               16.292              
O              27.306              8.322               14.352              
N              25.366              9.301               14.909              
H              25.647              10.21               14.552              
H              24.443              9.177               15.326              
N              23.756              4.452               16.714              
C              22.353              4.416               17.115              
C              21.632              5.69                16.67               
O              22.17               6.794               16.776              
C              22.241              4.239               18.638              
O              22.831              5.32                19.342              
H              24.541              4.547               17.374              
H              21.915              3.639               16.653              
H              21.275              4.181               18.881              
H              22.705              3.393               18.894              
H              22.118              5.957               19.632              
N              20.414              5.53                16.16               
C              19.628              6.675               15.712              
C              19.198              7.52                16.905              
O              19.207              8.747               16.844              
C              18.402              6.202               14.93               
C              18.744              5.603               13.584              
C              19.401              6.361               12.617              
C              18.426              4.28                13.279              
C              19.735              5.818               11.381              
C              18.756              3.725               12.041              
C              19.414              4.507               11.097              
O              19.754              3.981               9.872               
H              20.083              4.551               16.111              
H              20.206              7.243               15.118              
H              17.934              5.51                15.47               
H              17.806              6.984               14.78               
H              19.637              7.314               12.813              
H              17.956              3.718               13.955              
H              20.21               6.382               10.7                
H              18.522              2.78                11.836              
H              20.411              3.241               10.004              
N              18.831              6.849               17.99               
C              18.415              7.534               19.207              
C              19.617              7.637               20.138              
O              20.591              6.903               19.987              
C              17.311              6.74                19.91               
O              16.242              6.438               19.028              
H              18.866              5.815               17.897              
H              18.133              8.459               18.965              
H              17.698              5.888               20.254              
H              16.96               7.283               20.67               
H              16.392              5.539               18.62               
N              19.558              8.554               21.095              
C              20.65               8.678               22.05               
C              20.406              7.593               23.088              
O              19.275              7.13                23.258              
C              20.653              10.049              22.758              
O              19.434              10.213              23.494              
C              20.787              11.17               21.744              
H              18.714              9.139               21.101              
H              21.501              8.487               21.589              
H              21.43               10.075              23.418              
H              19.878              11.481              21.455              
H              21.282              11.942              22.151              
H              21.292              10.846              20.94               
H              19.625              10.257              24.48               
N              21.467              7.174               23.767              
C              21.346              6.143               24.786              
C              22.001              6.568               26.084              
O              22.946              7.359               26.091              
C              21.99               4.836               24.315              
C              21.306              4.205               23.123              
S              21.924              2.539               22.798              
C              20.581              1.865               21.804              
H              22.36               7.632               23.514              
H              20.364              5.992               24.965              
H              22.954              5.018               24.075              
H              21.98               4.176               25.079              
H              20.298              4.187               23.292              
H              21.444              4.804               22.306              
H              19.874              2.562               21.687              
H              20.935              1.594               20.91               
H              20.194              1.069               22.268              
N              21.487              6.037               27.187              
C              22.037              6.334               28.499              
C              23.321              5.528               28.637              
O              23.301              4.304               28.518              
C              21.053              5.921               29.59               
O              21.627              6.102               30.872              
H              20.677              5.406               27.032              
H              22.275              7.297               28.53               
H              20.237              6.484               29.518              
H              20.824              4.961               29.47               
H              20.948              5.891               31.574              
N              24.429              6.219               28.881              
C              25.721              5.559               29.023              
C              26.543              6.157               30.152              
O              26.231              7.229               30.672              
C              26.561              5.677               27.731              
C              26.934              7.142               27.48               
C              25.773              5.134               26.548              
C              27.879              7.346               26.307              
H              24.297              7.245               28.96               
H              25.523              4.605               29.283              
H              27.399              5.164               27.865              
H              26.096              7.658               27.312              
H              27.369              7.5                 28.305              
H              26.329              5.195               25.721              
H              25.533              4.18                26.717              
H              24.939              5.67                26.428              
H              27.448              7.002               25.475              
H              28.073              8.32                26.208              
H              28.727              6.848               26.479              
N              27.597              5.445               30.527              
C              28.511              5.904               31.559              
C              29.915              5.644               31.043              
O              30.268              4.504               30.728              
C              28.329              5.146               32.886              
O              27.027              5.416               33.419              
C              29.387              5.59                33.898              
H              27.71               4.539               30.023              
H              28.395              6.881               31.68               
H              28.397              4.144               32.705              
H              30.224              5.057               33.765              
H              29.589              6.562               33.768              
H              29.045              5.444               34.828              
H              26.511              6.013               32.796              
N              30.704              6.705               30.93               
C              32.072              6.57                30.464              
C              33.015              6.46                31.643              
O              32.882              7.183               32.633              
C              32.478              7.766               29.606              
C              31.856              7.729               28.236              
O              31.951              6.672               27.58               
O              31.28               8.751               27.81               
H              30.27               7.606               31.195              
H              32.131              5.705               29.955              
H              32.183              8.592               30.074              
H              33.467              7.755               29.514              
N              33.96               5.537               31.53               
C              34.953              5.32                32.562              
C              36.324              5.628               31.981              
O              36.747              5.009               31.002              
C              34.913              3.87                33.038              
S              33.364              3.365               33.853              
H              33.924              4.988               30.642              
H              34.782              5.958               33.31               
H              35.052              3.275               32.245              
H              35.662              3.733               33.689              
N              37.012              6.593               32.578              
C              38.34               6.972               32.116              
C              38.308              8.367               31.489              
C              39.677              8.882               31.058              
C              39.559              10.182              30.279              
N              38.912              9.981               28.985              
C              39.454              9.307               27.976              
N              40.66               8.767               28.107              
N              38.79               9.168               26.836              
H              36.533              7.041               33.381              
H              38.643              6.314               31.421              
H              37.725              8.335               30.684              
H              37.938              9.002               32.158              
H              40.236              9.051               31.864              
H              40.114              8.207               30.472              
H              39.02               10.82               30.821              
H              40.477              10.541              30.136              
H              37.998              10.379              28.849              
H              41.167              8.838               28.961              
H              41.07               8.274               27.329              
H              37.869              9.558               26.749              
H              39.2                8.679               26.07               
H              21.3196             1.27938             12.0265             
H              33.2047             4.26908             34.7946             
H              39.0466             6.95261             32.9483             
