292
1.xyz
C              20.08               -2.829              35.57               
C              19.715              -1.394              35.937              
O              18.536              -1.043              36.009              
C              21.032              -3.394              36.631              
O              21.209              -4.79               36.473              
H              19.225              -3.383              35.599              
H              21.915              -2.941              36.541              
H              20.647              -3.215              37.532              
H              21.826              -4.964              35.706              
N              20.728              -0.568              36.167              
C              20.505              0.822               36.541              
C              20.074              1.687               35.361              
O              20.625              1.584               34.264              
C              21.775              1.431               37.173              
O              21.535              2.805               37.504              
C              22.955              1.331               36.21               
H              21.67               -0.989              36.06               
H              19.77               0.852               37.24               
H              21.986              0.928               38.034              
H              23.432              2.211               36.168              
H              23.591              0.625               36.527              
H              22.625              1.091               35.295              
H              21.863              3.404               36.767              
N              19.077              2.535               35.597              
C              18.567              3.436               34.57               
C              19.589              4.542               34.375              
O              19.363              5.491               33.623              
C              17.232              4.041               35.009              
O              16.273              3.029               35.255              
H              18.698              2.5                 36.566              
H              18.494              2.927               33.718              
H              17.376              4.563               35.844              
H              16.897              4.637               34.285              
H              16.737              2.193               35.545              
N              20.712              4.391               35.073              
C              21.826              5.328               35.045              
C              21.772              6.278               36.233              
O              21.09               7.301               36.198              
C              21.843              6.118               33.739              
H              20.726              3.514               35.662              
H              22.689              4.809               35.088              
H              22.658              6.694               33.71               
H              21.855              5.484               32.967              
H              21.027              6.691               33.687              
N              22.494              5.917               37.288              
C              22.576              6.721               38.501              
C              23.996              6.546               39.021              
O              24.287              6.789               40.192              
C              21.566              6.23                39.531              
H              22.998              5.007               37.173              
H              22.435              7.671               38.271              
H              22.05               5.821               40.304              
H              21.016              7                   39.852              
H              20.969              5.546               39.113              
N              24.87               6.114               38.117              
C              26.276              5.867               38.405              
C              26.885              6.866               39.377              
O              27.07               8.038               39.043              
C              27.077              5.882               37.103              
O              26.566              4.932               36.185              
H              24.452              5.964               37.162              
H              26.351              4.942               38.823              
H              27.016              6.789               36.699              
H              28.025              5.658               37.307              
H              26.812              5.202               35.255              
N              27.199              6.397               40.579              
C              27.804              7.255               41.588              
C              29.226              7.561               41.147              
O              29.745              6.934               40.224              
C              27.845              6.549               42.94               
O              28.846              5.545               42.953              
H              26.982              5.396               40.73               
H              27.298              8.112               41.614              
H              28.049              7.218               43.647              
H              26.961              6.126               43.109              
H              29.506              5.724               42.225              
N              29.86               8.518               41.814              
C              31.228              8.882               41.478              
C              32.149              7.675               41.646              
O              33.286              7.68                41.178              
C              31.696              10.032              42.374              
O              31.446              9.744               43.74               
H              29.313              8.966               42.568              
H              31.254              9.155               40.513              
H              32.673              10.163              42.244              
H              31.201              10.857              42.121              
H              31.809              8.84                43.961              
N              31.64               6.639               42.305              
C              32.399              5.418               42.56               
C              32.072              4.306               41.558              
O              32.794              3.316               41.462              
C              32.101              4.93                43.983              
C              32.991              3.779               44.41               
O              33.677              3.849               45.429              
N              32.992              2.711               43.621              
H              30.654              6.773               42.624              
H              33.377              5.643               42.438              
H              32.241              5.691               44.611              
H              31.151              4.629               44.018              
H              32.429              2.7                 42.793              
H              33.554              1.917               43.851              
N              30.984              4.482               40.814              
C              30.53               3.496               39.834              
C              31.639              2.811               39.037              
O              31.783              1.59                39.08               
C              29.55               4.154               38.861              
C              29.004              3.226               37.797              
C              27.964              2.338               38.079              
C              29.522              3.246               36.504              
C              27.45               1.497               37.092              
C              29.018              2.409               35.515              
C              27.983              1.541               35.813              
O              27.48               0.721               34.828              
H              30.482              5.382               40.988              
H              30.012              2.77                40.336              
H              28.78               4.512               39.387              
H              30.022              4.907               38.403              
H              27.581              2.302               39.001              
H              30.267              3.873               36.283              
H              26.703              0.87                37.307              
H              29.403              2.435               34.592              
H              26.704              0.21                35.192              
N              32.419              3.594               38.305              
C              33.488              3.031               37.491              
C              34.534              2.255               38.284              
O              34.994              1.202               37.844              
C              34.152              4.133               36.672              
S              33.118              4.761               35.307              
H              32.209              4.604               38.361              
H              33.069              2.39                36.818              
H              34.357              4.896               37.276              
H              34.991              3.771               36.278              
N              34.922              2.76                39.449              
C              35.906              2.038               40.244              
C              35.369              0.647               40.563              
O              36.098              -0.342              40.487              
C              36.218              2.79                41.54               
C              36.907              4.113               41.292              
H              34.493              3.647               39.72               
H              36.718              1.914               39.674              
H              35.36               2.96                42.018              
H              36.813              2.218               42.098              
O              37.748              4.228               40.4                
N              36.566              5.12                42.091              
H              35.889              4.973               42.814              
H              36.983              6.019               41.972              
N              34.086              0.582               40.913              
C              33.428              -0.679              41.239              
C              33.275              -1.569              40.013              
O              33.769              -2.693              39.978              
C              32.033              -0.421              41.809              
C              31.989              0.024               43.25               
C              30.594              0.441               43.685              
H              33.597              1.503               40.934              
H              34.008              -1.169              41.905              
H              31.585              0.288               41.246              
H              31.492              -1.271              41.724              
H              32.288              -0.73               43.834              
H              32.603              0.804               43.37               
O              29.622              -0.291              43.485              
N              30.49               1.623               44.287              
H              29.588              1.974               44.593              
H              31.334              2.172               44.437              
N              32.575              -1.042              39.014              
C              32.293              -1.762              37.779              
C              33.489              -2.264              36.981              
O              33.486              -3.404              36.514              
C              31.412              -0.897              36.879              
C              29.983              -0.782              37.364              
S              29.14               -2.378              37.327              
C              28.59               -2.423              35.628              
H              32.243              -0.064              39.191              
H              31.715              -2.582              38.021              
H              31.809              0.027               36.826              
H              31.406              -1.292              35.952              
H              29.986              -0.399              38.31               
H              29.49               -0.102              36.783              
H              29.318              -2.791              35.046              
H              27.78               -3.007              35.55               
H              28.36               -1.497              35.322              
N              34.504              -1.424              36.807              
C              35.681              -1.831              36.051              
C              36.359              -3.032              36.7                
O              36.962              -3.86               36.019              
C              36.669              -0.668              35.935              
C              36.187              0.473               35.045              
S              35.886              -0.04               33.329              
C              37.575              -0.18               32.713              
H              34.388              -0.495              37.238              
H              35.384              -2.103              35.128              
H              36.848              -0.297              36.856              
H              37.54               -1.014              35.562              
H              35.334              0.868               35.456              
H              36.881              1.227               35.077              
H              38.178              0.386               33.273              
H              37.866              -1.134              32.764              
H              37.607              0.131               31.764              
N              36.255              -3.123              38.021              
C              36.853              -4.227              38.754              
C              35.937              -5.446              38.726              
O              36.377              -6.558              38.435              
C              37.121              -3.812              40.202              
C              37.74               -4.905              41.061              
C              38.059              -4.393              42.457              
C              38.696              -5.475              43.313              
N              39.082              -4.962              44.658              
H              35.722              -2.355              38.471              
H              37.728              -4.473              38.322              
H              37.743              -3.031              40.193              
H              36.252              -3.543              40.615              
H              37.096              -5.666              41.135              
H              38.584              -5.22               40.631              
H              38.694              -3.631              42.383              
H              37.215              -4.099              42.893              
H              38.043              -6.229              43.424              
H              39.515              -5.821              42.846              
H              38.978              -5.692              45.333              
H              40.034              -4.659              44.636              
H              38.491              -4.194              44.901              
N              34.658              -5.232              39.019              
C              33.69               -6.322              39.036              
C              33.552              -7.019              37.686              
O              33.321              -8.225              37.631              
C              32.322              -5.81               39.496              
O              31.858              -4.757              38.671              
H              34.416              -4.246              39.229              
H              34.008              -7.012              39.709              
H              31.67               -6.563              39.46               
H              32.404              -5.477              40.433              
H              32.577              -4.495              38.028              
N              33.695              -6.268              36.598              
C              33.577              -6.851              35.266              
C              34.913              -7.374              34.738              
O              35.041              -7.701              33.557              
C              32.988              -5.829              34.287              
C              31.538              -5.432              34.575              
C              30.609              -6.643              34.614              
N              29.215              -6.262              34.834              
C              28.406              -5.786              33.89               
N              28.847              -5.637              32.649              
N              27.158              -5.45               34.189              
H              33.89               -5.27               36.774              
H              32.924              -7.624              35.305              
H              33.544              -5.003              34.325              
H              33.021              -6.219              33.37               
H              31.491              -4.976              35.46               
H              31.216              -4.818              33.858              
H              30.688              -7.119              33.742              
H              30.911              -7.236              35.356              
H              28.841              -6.367              35.764              
H              29.775              -5.894              32.396              
H              28.232              -5.257              31.945              
H              26.824              -5.576              35.127              
H              26.555              -5.076              33.489              
N              35.905              -7.447              35.621              
C              37.232              -7.951              35.275              
C              37.938              -7.164              34.175              
O              38.552              -7.753              33.286              
C              37.14               -9.422              34.854              
C              36.494              -10.299             35.913              
H              35.655              -7.114              36.579              
H              37.808              -7.87               36.112              
H              36.596              -9.477              34.021              
H              38.063              -9.757              34.683              
O              36.339              -11.506             35.722              
N              36.112              -9.698              37.035              
H              36.253              -8.711              37.14               
H              35.687              -10.224             37.768              
N              37.863              -5.839              34.233              
C              38.51               -5.011              33.222              
C              39.819              -4.402              33.721              
O              40.424              -3.568              33.049              
C              37.555              -3.907              32.758              
C              36.206              -4.407              32.234              
C              35.401              -3.229              31.712              
C              36.422              -5.436              31.132              
H              37.325              -5.461              35.029              
H              38.717              -5.588              32.417              
H              37.373              -3.316              33.531              
H              37.994              -3.412              32.024              
H              35.712              -4.845              32.978              
H              35.902              -2.782              30.97               
H              34.518              -3.552              31.368              
H              35.249              -2.572              32.452              
H              36.941              -6.211              31.495              
H              35.536              -5.757              30.796              
H              36.932              -5.018              30.38               
N              40.251              -4.827              34.904              
H              39.637              -5.524              35.368              
H              33.2773             3.85692             34.3654             
H              41.1149             -4.487              35.3085             
H              20.5051             -2.93891            34.5997             
