313
4.xyz
C              46.876              6.366               2.76                
O              48.093              6.177               2.75                
N              45.986              5.381               2.819               
C              46.373              3.976               2.868               
C              45.12               3.131               2.696               
O              44.005              3.639               2.804               
C              47.031              3.647               4.212               
C              46.136              3.892               5.425               
C              46.902              3.712               6.734               
N              47.126              2.31                7.079               
C              46.311              1.584               7.84                
N              45.209              2.124               8.346               
N              46.601              0.316               8.102               
H              44.991              5.698               2.827               
H              46.997              3.784               2.114               
H              47.285              2.684               4.208               
H              47.842              4.215               4.31                
H              45.787              4.824               5.396               
H              45.382              3.242               5.417               
H              47.784              4.174               6.639               
H              46.373              4.151               7.461               
H              47.953              1.863               6.717               
H              44.963              3.07                8.15                
H              44.61               1.57                8.936               
H              47.427              -0.095              7.707               
H              46.003              -0.227              8.687               
N              45.3                1.846               2.416               
C              44.157              0.957               2.261               
C              43.685              0.568               3.655               
O              44.371              -0.18               4.348               
C              44.547              -0.316              1.504               
S              45.211              -0.103              -0.18               
H              46.281              1.546               2.322               
H              43.425              1.458               1.813               
H              45.24               -0.803              2.052               
H              43.728              -0.903              1.443               
N              42.533              1.081               4.081               
C              42.03               0.717               5.398               
C              41.791              -0.786              5.333               
O              40.986              -1.261              4.533               
C              40.726              1.45                5.716               
C              40.25               1.217               7.145               
C              39.013              2.033               7.487               
C              38.566              1.746               8.916               
N              37.364              2.534               9.309               
H              42.061              1.718               3.434               
H              42.722              0.902               6.075               
H              40.876              2.423               5.592               
H              40.024              1.122               5.095               
H              40.037              0.242               7.262               
H              40.988              1.466               7.779               
H              39.231              2.996               7.412               
H              38.28               1.783               6.871               
H              38.358              0.765               8.999               
H              39.323              1.965               9.542               
H              36.919              2.89                8.488               
H              36.729              1.943               9.805               
H              37.644              3.293               9.895               
N              42.501              -1.556              6.168               
C              42.408              -3.018              6.237               
C              40.997              -3.602              6.326               
O              40.608              -4.441              5.511               
C              43.242              -3.353              7.471               
C              44.261              -2.271              7.485               
C              43.443              -1.049              7.182               
H              42.916              -3.441              5.447               
H              42.679              -3.33               8.295               
H              43.668              -4.25               7.377               
H              44.691              -2.2                8.379               
H              44.949              -2.423              6.783               
H              42.952              -0.727              7.985               
H              44.003              -0.316              6.805               
N              40.237              -3.163              7.324               
C              38.885              -3.667              7.528               
C              37.918              -2.526              7.783               
O              38.234              -1.591              8.514               
C              38.835              -4.628              8.738               
C              37.437              -5.207              8.892               
C              39.854              -5.743              8.559               
H              40.681              -2.448              7.93                
H              38.597              -4.139              6.687               
H              39.022              -4.093              9.554               
H              36.762              -4.471              8.834               
H              37.268              -5.871              8.164               
H              37.359              -5.66               9.78                
H              40.399              -5.83               9.393               
H              39.375              -6.602              8.379               
H              40.452              -5.524              7.788               
N              36.744              -2.598              7.166               
C              35.731              -1.572              7.358               
C              34.35               -2.148              7.107               
O              34.126              -2.839              6.115               
C              35.956              -0.388              6.424               
C              35.079              0.79                6.78                
H              36.619              -3.424              6.555               
H              35.766              -1.296              8.323               
H              36.908              -0.109              6.492               
H              35.744              -0.675              5.495               
O              35.299              1.453               7.794               
N              34.064              1.045               5.963               
H              33.911              0.462               5.162               
H              33.453              1.814               6.144               
N              33.423              -1.837              8.003               
C              32.06               -2.333              7.907               
C              31.052              -1.239              7.598               
O              31.112              -0.147              8.164               
C              31.642              -2.989              9.229               
O              32.569              -4.033              9.55                
C              30.237              -3.564              9.12                
H              33.753              -1.214              8.771               
H              32.021              -3.021              7.16                
H              31.68               -2.292              9.971               
H              30.282              -4.516              8.808               
H              29.787              -3.533              10.015              
H              29.701              -3.028              8.464               
H              32.262              -4.906              9.157               
N              30.128              -1.548              6.693               
C              29.067              -0.623              6.32                
C              27.756              -1.201              6.843               
O              27.492              -2.396              6.683               
C              29.002              -0.472              4.797               
C              30.121              0.345               4.224               
C              30.097              1.735               4.305               
C              31.212              -0.271              3.624               
C              31.148              2.501               3.796               
C              32.269              0.488               3.111               
C              32.234              1.876               3.199               
H              30.229              -2.5                6.279               
H              29.226              0.223               6.817               
H              29.048              -1.377              4.403               
H              28.149              -0.025              4.575               
H              29.324              2.195               4.731               
H              31.247              -1.267              3.557               
H              31.107              3.503               3.866               
H              33.053              0.02                2.677               
H              32.986              2.422               2.835               
N              26.947              -0.357              7.478               
C              25.663              -0.784              8.031               
C              24.535              -0.274              7.137               
O              24.485              0.905               6.8                 
C              25.488              -0.258              9.474               
C              24.173              -0.751              10.057              
C              26.654              -0.729              10.336              
H              27.302              0.618               7.546               
H              25.636              -1.783              8.023               
H              25.435              0.733               9.427               
H              23.415              -0.239              9.653               
H              24.061              -1.724              9.855               
H              24.175              -0.616              11.048              
H              27.173              0.065               10.649              
H              26.299              -1.232              11.123              
H              27.244              -1.325              9.793               
N              23.618              -1.164              6.771               
C              22.534              -0.794              5.864               
C              21.209              -0.381              6.492               
O              20.246              -0.076              5.784               
C              22.322              -1.929              4.864               
C              23.574              -2.322              4.145               
H              23.735              -2.109              7.171               
H              22.866              -0.008              5.282               
H              21.971              -2.734              5.351               
H              21.643              -1.642              4.182               
N              24.286              -1.441              3.358               
C              24.264              -3.486              4.125               
C              25.36               -2.048              2.883               
N              25.369              -3.29               3.334               
H              24.028              -0.492              3.177               
H              24.017              -4.329              4.595               
H              26.045              -1.64               2.286               
N              21.167              -0.341              7.817               
C              19.959              0.056               8.528               
C              19.854              1.58                8.504               
O              20.792              2.265               8.099               
C              20.022              -0.438              9.974               
C              20.23               -1.943              10.12               
C              19.104              -2.759              9.509               
O              17.982              -2.229              9.382               
O              19.335              -3.938              9.171               
H              22.049              -0.611              8.292               
H              19.157              -0.34               8.086               
H              20.783              0.009               10.412              
H              19.166              -0.214              10.407              
H              21.06               -2.184              9.653               
H              20.266              -2.157              11.079              
N              18.716              2.115               8.933               
C              18.522              3.56                8.953               
C              19.454              4.206               9.966               
O              19.917              3.552               10.898              
C              17.078              3.902               9.326               
O              16.817              3.595               10.686              
H              18                  1.435               9.243               
H              18.755              3.919               8.044               
H              16.93               4.875               9.179               
H              16.464              3.37                8.751               
H              15.915              3.942               10.938              
N              19.723              5.494               9.788               
C              20.588              6.209               10.716              
C              19.947              6.21                12.097              
O              20.631              6.085               13.109              
C              20.805              7.652               10.256              
C              21.664              8.513               11.186              
C              23.056              7.914               11.311              
C              21.741              9.931               10.649              
H              19.28               5.928               8.962               
H              21.464              5.731               10.773              
H              21.258              7.627               9.373               
H              19.917              8.087               10.184              
H              21.234              8.547               12.085              
H              23.486              7.875               10.409              
H              23.611              8.481               11.92               
H              22.99               6.989               11.687              
H              20.82               10.321              10.596              
H              22.303              10.492              11.259              
H              22.151              9.923               9.735               
N              18.627              6.349               12.138              
C              17.921              6.363               13.412              
C              18.118              5.045               14.151              
O              18.382              5.033               15.356              
C              16.439              6.623               13.186              
H              18.164              6.443               11.221              
H              18.29               7.107               13.98               
H              16.3                7.585               12.953              
H              16.109              6.049               12.437              
H              15.931              6.406               14.019              
N              17.994              3.934               13.433              
C              18.163              2.628               14.059              
C              19.577              2.415               14.586              
O              19.761              1.841               15.658              
C              17.793              1.507               13.082              
C              16.295              1.276               13.005              
O              15.555              1.935               13.765              
O              15.856              0.433               12.194              
H              17.777              4.072               12.436              
H              17.542              2.597               14.858              
H              18.124              1.763               12.182              
H              18.23               0.673               13.393              
N              20.577              2.885               13.849              
C              21.952              2.718               14.293              
C              22.235              3.645               15.474              
O              22.882              3.247               16.443              
C              22.941              2.984               13.138              
C              24.37               2.851               13.627              
C              22.699              1.975               12.021              
H              20.303              3.356               12.977              
H              22.07               1.773               14.609              
H              22.816              3.927               12.847              
H              24.622              1.883               13.671              
H              24.987              3.325               12.998              
H              24.453              3.256               14.539              
H              23.378              2.113               11.301              
H              22.781              1.05                12.39               
H              21.781              2.11                11.649              
N              21.742              4.877               15.405              
C              21.941              5.825               16.501              
C              21.297              5.293               17.783              
O              21.794              5.53                18.887              
C              21.337              7.189               16.139              
C              22.201              8.004               15.187              
C              21.539              9.29                14.71               
H              21.224              5.099               14.541              
H              22.927              5.907               16.666              
H              20.449              7.04                15.705              
H              21.215              7.717               16.979              
H              23.056              8.243               15.654              
H              22.414              7.441               14.385              
O              22.222              10.227              14.291              
N              20.215              9.332               14.753              
H              19.708              10.161              14.464              
H              19.708              8.51                15.084              
N              20.197              4.564               17.625              
H              19.902              4.431               16.635              
C              45.617              2.238               -4.71               
O              44.455              2.609               -4.553              
N              45.937              1.136               -5.381              
C              44.909              0.281               -5.969              
C              44.384              -0.698              -4.926              
O              44.585              -1.907              -5.03               
C              45.474              -0.494              -7.162              
C              45.953              0.416               -8.274              
H              46.952              0.942               -5.449              
H              44.143              0.874               -6.229              
H              46.243              -1.042              -6.844              
H              44.756              -1.085              -7.52               
O              46.913              1.169               -8.107              
N              45.281              0.354               -9.419              
H              44.501              -0.267              -9.507              
H              45.553              0.926               -10.192             
N              43.701              -0.165              -3.921              
C              43.162              -0.988              -2.851              
C              42.077              -1.947              -3.332              
O              41.101              -1.538              -3.961              
C              42.62               -0.091              -1.74               
S              43.852              1.088               -1.095              
H              43.589              0.866               -3.966              
H              43.918              -1.543              -2.464              
H              41.857              0.431               -2.1                
H              42.324              -0.667              -0.986              
N              42.266              -3.229              -3.034              
C              41.317              -4.266              -3.425              
C              40.685              -4.869              -2.18               
O              41.363              -5.099              -1.181              
C              42.024              -5.348              -4.227              
H              43.141              -3.426              -2.503              
H              40.596              -3.852              -3.984              
H              42.355              -6.06               -3.609              
H              41.385              -5.749              -4.883              
H              42.798              -4.949              -4.718              
N              39.386              -5.14               -2.256              
H              38.948              -4.926              -3.172              
H              46.4246             2.80895             -4.30936            
H              38.8802             -5.5251             -1.46984            
H              46.4761             7.35156             2.72719             
H              19.6932             4.17335             18.4119             
