202
1.xyz
C              -8.396              -5.466              -17.921             
C              -7.53               -4.804              -16.857             
O              -7.641              -3.603              -16.614             
C              -9.702              -5.953              -17.312             
H              -8.623              -4.779              -18.624             
H              -9.571              -6.865              -16.924             
H              -9.99               -5.324              -16.59              
H              -10.407             -5.992              -18.02              
N              -6.671              -5.594              -16.221             
C              -5.789              -5.08               -15.18              
C              -4.874              -3.991              -15.728             
O              -4.63               -2.98               -15.069             
C              -4.955              -6.215              -14.586             
C              -5.711              -7.06               -13.574             
C              -4.895              -8.232              -13.066             
O              -3.807              -7.997              -12.5               
O              -5.346              -9.384              -13.233             
H              -6.683              -6.586              -16.524             
H              -6.339              -4.706              -14.424             
H              -4.683              -6.805              -15.323             
H              -4.187              -5.814              -14.125             
H              -5.931              -6.493              -12.802             
H              -6.513              -7.423              -14.011             
N              -4.372              -4.199              -16.943             
C              -3.489              -3.23               -17.58              
C              -4.26               -1.978              -17.985             
O              -3.82               -0.857              -17.731             
C              -2.817              -3.85               -18.808             
C              -1.803              -2.95               -19.515             
C              -0.752              -2.455              -18.532             
C              -1.147              -3.692              -20.67              
H              -4.659              -5.092              -17.386             
H              -2.775              -2.964              -16.923             
H              -2.336              -4.666              -18.513             
H              -3.525              -4.074              -19.463             
H              -2.283              -2.167              -19.91              
H              -0.27               -3.237              -18.136             
H              -0.097              -1.869              -19.01              
H              -1.196              -1.933              -17.803             
H              -1.847              -3.972              -21.328             
H              -0.487              -3.091              -21.122             
H              -0.674              -4.503              -20.322             
N              -5.414              -2.178              -18.614             
C              -6.248              -1.066              -19.05              
C              -6.841              -0.323              -17.859             
O              -7.032              0.893               -17.903             
C              -7.392              -1.544              -19.965             
C              -8.125              -0.356              -20.57              
C              -6.857              -2.461              -21.054             
H              -5.662              -3.175              -18.763             
H              -5.668              -0.419              -19.561             
H              -8.048              -2.034              -19.399             
H              -8.159              -0.455              -21.565             
H              -9.056              -0.318              -20.208             
H              -7.643              0.488               -20.336             
H              -7.339              -2.273              -21.91              
H              -5.878              -2.294              -21.175             
H              -7.005              -3.413              -20.787             
N              -7.132              -1.063              -16.794             
C              -7.705              -0.475              -15.588             
C              -6.728              0.503               -14.943             
O              -7.118              1.582               -14.499             
C              -8.082              -1.571              -14.59              
C              -9.412              -2.222              -14.921             
O              -10.336             -1.501              -15.351             
O              -9.528              -3.455              -14.752             
H              -6.92               -2.074              -16.893             
H              -8.512              0.057               -15.869             
H              -7.373              -2.264              -14.613             
H              -8.143              -1.16               -13.69              
N              -5.457              0.117               -14.894             
C              -4.426              0.96                -14.302             
C              -4.255              2.254               -15.092             
O              -4.244              3.344               -14.521             
C              -3.107              0.208               -14.224             
H              -5.268              -0.817              -15.305             
H              -4.698              1.194               -13.36              
H              -2.638              0.262               -15.105             
H              -2.53               0.615               -13.516             
H              -3.281              -0.751              -13.999             
N              -4.123              2.125               -16.409             
C              -3.954              3.286               -17.276             
C              -5.15               4.225               -17.167             
O              -4.995              5.447               -17.148             
C              -3.765              2.841               -18.729             
C              -2.318              2.562               -19.135             
C              -2.248              2.098               -20.581             
C              -1.461              3.804               -18.928             
H              -4.15               1.148               -16.757             
H              -3.13               3.786               -16.986             
H              -4.278              2.003               -18.86              
H              -4.106              3.562               -19.316             
H              -1.945              1.851               -18.539             
H              -2.62               2.808               -21.179             
H              -1.295              1.92                -20.83              
H              -2.782              1.259               -20.69              
H              -1.484              4.068               -17.963             
H              -0.518              3.608               -19.197             
H              -1.818              4.553               -19.487             
N              -6.344              3.647               -17.086             
C              -7.566              4.434               -16.971             
C              -7.706              5.01                -15.566             
O              -8.257              6.095               -15.38              
C              -8.785              3.573               -17.307             
C              -8.978              3.343               -18.797             
C              -9.83               4.415               -19.446             
H              -6.33               2.61                -17.111             
H              -7.502              5.205               -17.614             
H              -8.68               2.682               -16.865             
H              -9.605              4.025               -16.952             
H              -8.082              3.337               -19.239             
H              -9.422              2.457               -18.93              
O              -10.682             5.025               -18.798             
N              -9.606              4.65                -20.733             
H              -10.148             5.345               -21.24              
H              -8.877              4.121               -21.21              
N              -7.2                4.278               -14.578             
C              -7.265              4.716               -13.189             
C              -6.205              5.777               -12.904             
O              -6.408              6.666               -12.079             
C              -7.077              3.522               -12.249             
C              -7.171              3.879               -10.793             
C              -8.273              4.561               -10.303             
C              -6.158              3.532               -9.915              
C              -8.363              4.891               -8.965              
C              -6.242              3.859               -8.575              
C              -7.346              4.539               -8.099              
H              -6.763              3.384               -14.877             
H              -8.159              5.159               -13.061             
H              -7.787              2.865               -12.45              
H              -6.179              3.146               -12.415             
H              -9.013              4.817               -10.922             
H              -5.356              3.038               -10.256             
H              -9.172              5.39                -8.627              
H              -5.489              3.598               -7.946              
H              -7.413              4.778               -7.129              
N              -5.074              5.671               -13.593             
C              -3.979              6.619               -13.416             
C              -4.151              7.825               -14.336             
O              -4.388              8.942               -13.873             
C              -2.611              5.956               -13.694             
C              -1.467              6.912               -13.375             
C              -2.467              4.665               -12.898             
H              -5.038              4.872               -14.254             
H              -4                  6.949               -12.466             
H              -2.564              5.76                -14.669             
H              -1.809              7.851               -13.372             
H              -1.09               6.691               -12.476             
H              -0.753              6.82                -14.068             
H              -2.28               3.91                -13.526             
H              -1.711              4.76                -12.251             
H              -3.316              4.488               -12.401             
N              -4.025              7.592               -15.637             
C              -4.162              8.658               -16.623             
C              -5.612              9.124               -16.724             
O              -5.899              10.316              -16.631             
H              -3.824              6.604               -15.887             
H              -3.604              9.44                -16.324             
N              -6.522              8.175               -16.909             
C              -7.931              8.51                -17.014             
C              -8.256              9.313               -18.259             
O              -8.155              8.806               -19.376             
H              -6.15               7.213               -16.969             
H              -8.481              7.655               -17.015             
H              -8.213              9.039               -16.193             
N              -8.657              10.566              -18.064             
C              -9.01               11.441              -19.179             
C              -7.785              12.093              -19.838             
O              -7.939              12.957              -20.701             
C              -9.974              12.528              -18.703             
C              -10.795             13.112              -19.837             
O              -11.871             12.554              -20.136             
O              -10.362             14.125              -20.424             
H              -8.696              10.862              -17.07              
H              -9.448              10.864              -19.887             
H              -10.59              12.123              -18.038             
H              -9.44               13.254              -18.289             
N              -6.572              11.691              -19.448             
C              -5.366              12.264              -20.03              
C              -4.156              11.986              -19.136             
C              -4.338              12.458              -17.697             
C              -3.417              13.618              -17.346             
N              -2.339              13.206              -16.444             
C              -1.52               14.052              -15.814             
N              -1.641              15.366              -15.975             
N              -0.574              13.577              -15.017             
H              -6.57               10.959              -18.718             
H              -5.48               13.262              -20.102             
H              -3.998              11.006              -19.12              
H              -3.37               12.459              -19.517             
H              -5.282              12.759              -17.564             
H              -4.137              11.703              -17.074             
H              -3.023              13.967              -18.191             
H              -3.963              14.323              -16.904             
H              -2.206              12.221              -16.289             
H              -2.361              15.74               -16.556             
H              -1.005              15.986              -15.509             
H              -0.489              12.588              -14.875             
H              0.056               14.201              -14.555             
H              -5.18647            11.8604             -21.0339            
H              -7.88429            -6.27323            -18.3854            
H              -3.81425            8.32151             -17.586             
