371
0.xyz
N              4.642               -16.993             -7.871              
C              4.178               -16.44              -9.175              
C              4.636               -15.003             -9.394              
O              4.635               -14.212             -8.452              
H              5.638               -16.983             -7.848              
H              4.532               -17.027             -9.916              
H              3.17                -16.483             -9.201              
H              4.281               -16.431             -7.131              
H              4.312               -17.929             -7.777              
N              5.038               -14.62              -10.631             
C              5.49                -13.254             -10.912             
C              4.341               -12.251             -10.911             
O              3.175               -12.627             -11.029             
C              6.105               -13.362             -12.308             
C              5.386               -14.498             -12.948             
C              5.086               -15.473             -11.843             
H              6.208               -12.975             -10.255             
H              5.965               -12.511             -12.822             
H              7.09                -13.546             -12.248             
H              4.535               -14.179             -13.384             
H              5.961               -14.927             -13.657             
H              4.206               -15.928             -11.981             
H              5.806               -16.162             -11.753             
N              4.68                -10.972             -10.775             
C              3.678               -9.913              -10.757             
C              3.676               -9.142              -12.073             
O              4.588               -8.362              -12.348             
C              3.94                -8.957              -9.593              
C              3.752               -9.596              -8.227              
C              5.006               -10.287             -7.729              
O              5.939               -9.579              -7.294              
O              5.055               -11.533             -7.777              
H              5.7                 -10.798             -10.685             
H              2.766               -10.311             -10.601             
H              4.873               -8.657              -9.656              
H              3.302               -8.214              -9.665              
H              3.527               -8.888              -7.584              
H              3.046               -10.276             -8.297              
N              2.646               -9.366              -12.884             
C              2.524               -8.692              -14.172             
C              1.147               -8.051              -14.319             
O              0.258               -8.276              -13.5               
C              2.769               -9.678              -15.317             
O              1.643               -10.516             -15.505             
C              3.973               -10.568             -15.097             
H              1.95                -10.049             -12.527             
H              3.217               -7.965              -14.22              
H              2.924               -9.146              -16.182             
H              3.69                -11.531             -15.074             
H              4.635               -10.442             -15.841             
H              4.416               -10.338             -14.226             
H              1.156               -10.276             -16.355             
N              0.978               -7.248              -15.367             
C              -0.292              -6.573              -15.613             
C              -0.745              -6.761              -17.058             
O              -0.149              -6.211              -17.984             
C              -0.167              -5.081              -15.299             
C              -1.455              -4.407              -14.824             
C              -1.843              -4.914              -13.445             
C              -1.289              -2.895              -14.811             
H              1.809               -7.147              -15.978             
H              -0.991              -6.972              -15.007             
H              0.507               -4.976              -14.578             
H              0.124               -4.618              -16.125             
H              -2.187              -4.613              -15.473             
H              -1.111              -4.709              -12.794             
H              -2.686              -4.465              -13.148             
H              -1.989              -5.903              -13.48              
H              -1.075              -2.574              -15.734             
H              -2.138              -2.467              -14.499             
H              -0.544              -2.645              -14.191             
N              -1.806              -7.541              -17.244             
C              -2.344              -7.799              -18.577             
C              -3.869              -7.804              -18.553             
O              -4.484              -7.958              -17.499             
C              -1.828              -9.137              -19.11              
S              -0.024              -9.352              -18.97              
H              -2.21               -7.942              -16.376             
H              -2.044              -7.058              -19.187             
H              -2.266              -9.869              -18.596             
H              -2.072              -9.205              -20.074             
N              -4.473              -7.64               -19.725             
C              -5.922              -7.633              -19.82              
C              -6.542              -6.397              -19.2               
O              -5.993              -5.299              -19.301             
H              -3.84               -7.522              -20.533             
H              -6.195              -7.69               -20.797             
H              -6.293              -8.459              -19.361             
N              -7.693              -6.575              -18.559             
H              -8.042              -7.553              -18.552             
C              12.534              -2.781              -33.665             
O              11.733              -2.597              -34.581             
N              12.22               -3.568              -32.605             
C              10.922              -4.236              -32.492             
C              9.842               -3.318              -31.931             
O              10.127              -2.211              -31.477             
C              11.214              -5.373              -31.518             
C              12.261              -4.825              -30.612             
C              13.088              -3.874              -31.442             
H              10.638              -4.616              -33.388             
H              10.388              -5.622              -31.005             
H              11.548              -6.183              -32.007             
H              11.84               -4.342              -29.832             
H              12.837              -5.568              -30.244             
H              13.3                -3.036              -30.937             
H              13.941              -4.301              -31.748             
N              8.599               -3.79               -31.961             
C              7.474               -3.015              -31.451             
C              7.161               -3.404              -30.01              
O              6.843               -4.559              -29.725             
C              6.241               -3.227              -32.33              
C              5.032               -2.421              -31.885             
C              3.725               -3.151              -32.121             
H              8.502               -4.739              -32.371             
H              7.736               -2.044              -31.457             
H              6.465               -2.961              -33.268             
H              5.994               -4.197              -32.309             
H              5.117               -2.228              -30.908             
H              5.014               -1.561              -32.395             
O              3.447               -4.172              -31.491             
N              2.912               -2.63               -33.032             
H              2.024               -3.072              -33.255             
H              3.192               -1.774              -33.509             
N              7.256               -2.436              -29.105             
C              6.986               -2.685              -27.693             
C              6.735               -1.377              -26.945             
O              7.376               -0.362              -27.217             
C              8.156               -3.44               -27.055             
O              8.047               -3.437              -25.641             
C              9.509               -2.864              -27.416             
H              7.532               -1.51               -29.481             
H              6.158               -3.253              -27.62              
H              8.134               -4.415              -27.378             
H              10.208              -3.584              -27.388             
H              9.481               -2.473              -28.34              
H              9.76                -2.142              -26.765             
H              7.36                -4.108              -25.335             
N              5.801               -1.414              -26                 
C              5.482               -0.229              -25.224             
C              5.142               -0.557              -23.783             
O              6.025               -0.609              -22.927             
H              5.34                -2.33               -25.873             
H              6.27                0.409               -25.244             
H              4.698               0.252               -25.651             
N              3.86                -0.782              -23.514             
C              3.405               -1.11               -22.168             
C              3.114               -2.606              -22.042             
O              3.273               -3.19               -20.97              
C              2.144               -0.295              -21.788             
C              1.726               -0.572              -20.338             
C              0.999               -0.603              -22.743             
C              2.527               0.201               -19.313             
H              3.223               -0.705              -24.331             
H              4.175               -0.917              -21.553             
H              2.372               0.671               -21.864             
H              0.76                -0.339              -20.24              
H              1.839               -1.55               -20.164             
H              0.213               -0.029              -22.518             
H              1.288               -0.417              -23.681             
H              0.744               -1.565              -22.658             
H              2.413               1.18                -19.474             
H              2.201               -0.028              -18.397             
H              3.493               -0.042              -19.396             
N              2.689               -3.218              -23.144             
C              2.378               -4.642              -23.152             
C              3.648               -5.481              -23.05              
O              3.889               -6.138              -22.046             
C              1.603               -5.045              -24.421             
C              1.134               -6.489              -24.33              
C              0.425               -4.11               -24.643             
H              2.601               -2.606              -23.977             
H              1.808               -4.844              -22.346             
H              2.233               -4.991              -25.19              
H              1.912               -7.103              -24.466             
H              0.734               -6.655              -23.428             
H              0.446               -6.662              -25.035             
H              0.463               -3.745              -25.573             
H              -0.428              -4.616              -24.516             
H              0.471               -3.358              -23.985             
N              4.461               -5.453              -24.095             
C              5.705               -6.215              -24.106             
C              6.647               -5.8                -22.966             
O              7.586               -6.527              -22.645             
C              6.414               -6.046              -25.45              
C              5.722               -6.802              -26.568             
O              4.732               -6.274              -27.117             
O              6.17                -7.921              -26.895             
H              4.146               -4.859              -24.883             
H              5.467               -7.183              -23.947             
H              6.421               -5.079              -25.675             
H              7.339               -6.391              -25.356             
N              6.416               -4.625              -22.371             
C              7.273               -4.137              -21.296             
C              6.794               -4.57               -19.908             
O              7.614               -4.862              -19.037             
C              7.364               -2.611              -21.352             
C              8.379               -2.026              -20.384             
C              9.783               -2.545              -20.629             
O              10.449              -2.04               -21.556             
O              10.215              -3.457              -19.893             
H              5.596               -4.108              -22.734             
H              8.221               -4.471              -21.439             
H              7.64                -2.361              -22.261             
H              6.482               -2.249              -21.115             
H              8.397               -1.052              -20.507             
H              8.122               -2.284              -19.472             
N              5.477               -4.583              -19.681             
C              4.941               -4.952              -18.363             
C              4.158               -6.265              -18.383             
O              4.078               -6.958              -17.368             
C              4.059               -3.832              -17.817             
S              4.283               -3.541              -16.033             
H              4.889               -4.32               -20.485             
H              5.723               -5.063              -17.728             
H              4.284               -2.992              -18.295             
H              3.109               -4.077              -17.97              
N              3.573               -6.607              -19.523             
C              2.802               -7.842              -19.631             
C              3.729               -9.042              -19.788             
O              3.549               -10.069             -19.133             
C              1.824               -7.773              -20.806             
S              0.641               -9.161              -20.88              
H              3.706               -5.944              -20.305             
H              2.277               -7.962              -18.782             
H              1.301               -6.928              -20.73              
H              2.351               -7.774              -21.652             
N              4.727               -8.904              -20.656             
C              5.688               -9.975              -20.89              
C              6.738               -9.998              -19.784             
O              7.195               -11.061             -19.365             
C              6.36                -9.795              -22.252             
C              5.623               -10.467             -23.378             
C              4.566               -9.831              -24.006             
C              5.99                -11.733             -23.805             
C              3.886               -10.445             -25.04              
C              5.312               -12.353             -24.839             
C              4.26                -11.707             -25.458             
H              4.76                -7.987              -21.141             
H              5.184               -10.841             -20.829             
H              6.398               -8.828              -22.446             
H              7.263               -10.191             -22.199             
H              4.29                -8.918              -23.712             
H              6.754               -12.203             -23.361             
H              3.117               -9.966              -25.484             
H              5.591               -13.282             -25.137             
H              3.767               -12.15              -26.209             
N              7.105               -8.812              -19.307             
C              8.089               -8.677              -18.239             
C              7.495               -7.89               -17.077             
O              6.556               -7.124              -17.262             
C              9.348               -7.974              -18.755             
C              9.833               -8.493              -20.101             
C              10.696              -7.464              -20.814             
N              12.05               -7.405              -20.261             
C              13.034              -8.246              -20.587             
N              12.833              -9.224              -21.466             
N              14.23               -8.108              -20.031             
H              6.635               -7.999              -19.757             
H              8.342               -9.592              -17.912             
H              9.146               -7.005              -18.852             
H              10.075              -8.111              -18.091             
H              10.378              -9.315              -19.963             
H              9.049               -8.695              -20.68              
H              10.746              -7.714              -21.777             
H              10.261              -6.573              -20.714             
H              12.253              -6.683              -19.59              
H              11.946              -9.33               -21.91              
H              13.579              -9.858              -21.684             
H              14.395              -7.36               -19.383             
H              14.966              -8.744              -20.256             
N              8.036               -8.08               -15.879             
C              7.535               -7.375              -14.703             
C              8.127               -5.971              -14.611             
O              9.322               -5.806              -14.372             
C              7.863               -8.163              -13.434             
O              9.186               -8.67               -13.476             
H              8.822               -8.753              -15.853             
H              6.537               -7.283              -14.795             
H              7.772               -7.559              -12.648             
H              7.227               -8.925              -13.356             
H              9.182               -9.578              -13.893             
N              7.282               -4.955              -14.805             
C              7.729               -3.563              -14.743             
C              7.264               -2.894              -13.442             
O              6.873               -3.569              -12.49              
C              7.259               -2.79               -16.011             
S              5.598               -1.998              -15.96              
H              6.303               -5.234              -14.999             
H              8.734               -3.552              -14.753             
H              7.94                -2.071              -16.197             
H              7.269               -3.44               -16.782             
N              7.3                 -1.565              -13.424             
C              6.87                -0.8                -12.256             
C              5.618               0.007               -12.584             
O              5.429               0.446               -13.718             
C              7.991               0.127               -11.773             
C              8.653               0.887               -12.906             
O              9.214               0.234               -13.811             
O              8.61                2.136               -12.888             
H              7.654               -1.126              -14.296             
H              6.616               -1.461              -11.544             
H              7.595               0.78                -11.137             
H              8.675               -0.431              -11.318             
N              4.76                0.19                -11.586             
C              3.517               0.932               -11.768             
C              3.779               2.393               -12.132             
O              2.956               3.034               -12.786             
C              2.666               0.854               -10.5               
C              1.977               -0.492              -10.265             
C              3.005               -1.591              -10.048             
C              1.03                -0.407              -9.077              
H              5.046               -0.234              -10.681             
H              2.996               0.508               -12.521             
H              3.258               1.024               -9.723              
H              1.958               1.544               -10.563             
H              1.417               -0.713              -11.063             
H              3.566               -1.372              -9.249              
H              2.537               -2.462              -9.896              
H              3.591               -1.665              -10.855             
H              0.332               0.288               -9.254              
H              0.588               -1.294              -8.937              
H              1.545               -0.159              -8.256              
N              4.923               2.92                -11.704             
C              5.278               4.307               -11.988             
C              5.316               4.58                -13.493             
O              5.104               5.71                -13.93              
C              6.629               4.649               -11.357             
C              6.584               4.726               -9.839              
C              7.816               5.417               -9.277              
N              7.702               5.649               -7.836              
C              8.401               6.567               -7.163              
N              9.278               7.348               -7.788              
N              8.222               6.703               -5.857              
H              5.527               2.273               -11.163             
H              4.587               4.912               -11.571             
H              7.279               3.943               -11.612             
H              6.92                5.533               -11.702             
H              5.78                5.244               -9.556              
H              6.546               3.804               -9.461              
H              8.605               4.837               -9.454              
H              7.92                6.291               -9.743              
H              7.055               5.08                -7.317              
H              9.411               7.272               -8.774              
H              9.808               8.019               -7.264              
H              7.549               6.13                -5.384              
H              8.754               7.374               -5.343              
N              5.585               3.541               -14.284             
C              5.643               3.684               -15.737             
C              6.033               2.357               -16.396             
C              7.278               1.711               -15.808             
C              8.497               2.612               -15.938             
N              9.072               2.568               -17.284             
C              10.329              2.914               -17.577             
N              11.162              3.329               -16.627             
N              10.755              2.841               -18.832             
H              5.745               2.645               -13.789             
H              6.346               4.367               -15.968             
H              5.274               1.721               -16.288             
H              6.2                 2.527               -17.363             
H              7.131               1.526               -14.839             
H              7.47                0.859               -16.29              
H              8.216               3.545               -15.732             
H              9.179               2.306               -15.279             
H              8.484               2.258               -18.038             
H              10.864              3.369               -15.676             
H              12.096              3.603               -16.868             
H              10.139              2.509               -19.549             
H              11.687              3.115               -19.063             
H              13.4986             -2.31893            -33.695             
H              -8.1808             -5.80549            -18.1163            
H              4.68072             4.02367             -16.1384            
