232
6.xyz
C              17.876              27.336              -1.867              
O              19.046              26.958              -1.881              
N              17.003              26.998              -2.811              
C              17.418              26.171              -3.935              
C              18.388              26.969              -4.802              
O              19.29               26.405              -5.422              
C              16.221              25.766              -4.789              
C              15.388              24.615              -4.268              
C              15.738              23.904              -3.117              
C              14.261              24.212              -4.968              
C              14.966              22.809              -2.689              
C              13.493              23.133              -4.56               
C              13.844              22.434              -3.426              
O              13.047              21.37               -3.057              
H              16.048              27.359              -2.68               
H              17.903              25.372              -3.581              
H              15.618              26.567              -4.885              
H              16.559              25.513              -5.704              
H              16.539              24.168              -2.591              
H              13.992              24.717              -5.795              
H              15.221              22.311              -1.867              
H              12.686              22.864              -5.089              
H              13.016              21.316              -2.061              
N              18.189              28.281              -4.844              
C              19.054              29.145              -5.629              
C              20.491              29.185              -5.147              
O              21.389              29.573              -5.9                
H              17.387              28.622              -4.285              
H              19.037              28.839              -6.604              
H              18.674              30.093              -5.624              
N              20.721              28.799              -3.896              
C              22.072              28.781              -3.344              
C              22.782              27.491              -3.753              
O              23.948              27.292              -3.415              
C              22.048              28.844              -1.812              
C              21.387              30.1                -1.28               
H              19.879              28.519              -3.361              
H              22.576              29.538              -3.764              
H              21.546              28.051              -1.474              
H              22.99               28.815              -1.483              
O              21.657              31.207              -1.748              
N              20.527              29.934              -0.278              
H              20.354              29.018              0.085               
H              20.055              30.723              0.112               
N              22.069              26.625              -4.471              
C              22.603              25.33               -4.915              
C              22.515              25.198              -6.441              
O              21.802              24.339              -6.962              
C              21.801              24.191              -4.271              
C              21.534              24.258              -2.766              
C              20.558              23.16               -2.372              
C              22.839              24.126              -2.003              
H              21.099              26.942              -4.693              
H              23.569              25.276              -4.649              
H              20.908              24.152              -4.73               
H              22.294              23.335              -4.448              
H              21.142              25.146              -2.545              
H              20.948              22.268              -2.6                
H              20.384              23.204              -1.388              
H              19.698              23.283              -2.868              
H              23.457              24.871              -2.261              
H              22.66               24.17               -1.019              
H              23.27               23.249              -2.222              
N              23.258              26.039              -7.173              
C              23.291              26.062              -8.64               
C              23.598              24.73               -9.324              
O              23.059              24.435              -10.393             
C              24.361              27.112              -8.944              
C              24.306              28.016              -7.745              
C              24.194              27.03               -6.617              
H              22.412              26.453              -9.006              
H              25.26               26.689              -9.028              
H              24.142              27.613              -9.777              
H              25.137              28.55               -7.674              
H              23.509              28.603              -7.79               
H              25.071              26.608              -6.411              
H              23.814              27.451              -5.798              
N              24.466              23.932              -8.712              
C              24.848              22.653              -9.294              
C              24.125              21.433              -8.738              
O              24.581              20.305              -8.911              
C              26.36               22.466              -9.172              
C              27.129              23.319              -10.166             
O              28.376              23.338              -10.103             
O              26.483              23.963              -11.019             
H              24.834              24.289              -7.814              
H              24.623              22.7                -10.293             
H              26.63               22.726              -8.254              
H              26.568              21.512              -9.343              
N              23.004              21.658              -8.064              
C              22.22               20.55               -7.534              
C              20.932              20.482              -8.344              
O              20.628              21.402              -9.101              
C              21.896              20.767              -6.062              
S              23.327              20.817              -4.937              
H              22.746              22.651              -7.953              
H              22.724              19.708              -7.68               
H              21.403              21.637              -5.973              
H              21.293              20.023              -5.759              
N              20.177              19.4                -8.178              
C              18.934              19.198              -8.914              
C              17.832              18.755              -7.948              
O              17.517              17.576              -7.85               
C              19.162              18.133              -9.995              
C              20.145              18.591              -11.066             
H              20.547              18.716              -7.484              
H              18.657              20.086              -9.283              
H              19.526              17.317              -9.56               
H              18.29               17.935              -10.43              
O              19.768              19.269              -12.019             
N              21.415              18.233              -10.901             
H              21.675              17.684              -10.104             
H              22.105              18.508              -11.566             
N              17.234              19.715              -7.222              
C              16.167              19.495              -6.24               
C              14.95               18.679              -6.654              
O              14.393              17.95               -5.834              
C              15.778              20.908              -5.836              
C              17.052              21.637              -5.928              
C              17.644              21.13               -7.226              
H              16.576              19.101              -5.365              
H              15.096              21.28               -6.466              
H              15.413              20.922              -4.905              
H              16.906              22.623              -5.974              
H              17.653              21.419              -5.163              
H              17.259              21.607              -8.009              
H              18.636              21.21               -7.227              
N              14.523              18.805              -7.904              
H              15.071              19.443              -8.499              
C              23.477              11.054              3.929               
O              23.142              9.888               3.718               
N              23.759              11.919              2.958               
C              23.723              11.531              1.562               
C              24.806              12.341              0.883               
O              25.822              12.642              1.506               
H              24.001              12.875              3.286               
H              23.922              10.567              1.473               
H              22.844              11.755              1.171               
N              24.607              12.693              -0.382              
C              25.588              13.515              -1.085              
C              25.449              14.941              -0.541              
O              24.484              15.253              0.166               
C              25.321              13.551              -2.604              
O              24.054              14.177              -2.851              
C              25.303              12.144              -3.184              
H              23.734              12.349              -0.807              
H              26.497              13.186              -0.868              
H              26.045              14.111              -3.051              
H              24.553              11.618              -2.776              
H              25.172              12.187              -4.177              
H              26.172              11.684              -2.987              
H              23.304              13.539              -2.648              
N              26.41               15.801              -0.868              
C              26.371              17.181              -0.409              
C              25.069              17.831              -0.86               
O              24.396              18.504              -0.079              
C              27.562              17.96               -0.975              
O              27.582              19.279              -0.459              
H              27.164              15.411              -1.46               
H              26.384              17.18               0.592               
H              28.4                17.496              -0.715              
H              27.477              17.999              -1.964              
H              26.764              19.433              0.095               
N              24.716              17.626              -2.124              
C              23.491              18.197              -2.67               
C              22.258              17.671              -1.958              
O              21.364              18.441              -1.595              
C              23.371              17.892              -4.159              
S              24.272              19.047              -5.244              
H              25.371              17.04               -2.673              
H              23.526              19.199              -2.541              
H              23.729              16.975              -4.323              
H              22.405              17.926              -4.411              
N              22.208              16.359              -1.765              
C              21.071              15.753              -1.091              
C              20.886              16.324              0.312               
O              19.754              16.605              0.729               
C              21.247              14.235              -1.065              
C              20.929              13.624              -2.428              
C              21.516              12.249              -2.637              
O              22.111              11.697              -1.691              
O              21.374              11.727              -3.768              
H              23.018              15.828              -2.123              
H              20.231              15.912              -1.629              
H              22.178              14.043              -0.867              
H              20.617              13.869              -0.424              
H              19.947              13.548              -2.505              
H              21.301              14.22               -3.123              
N              21.988              16.513              1.034               
C              21.904              17.062              2.388               
C              21.356              18.486              2.376               
O              20.488              18.837              3.174               
C              23.278              17.072              3.072               
C              23.866              15.681              3.241               
O              25.082              15.51               3.31                
N              22.997              14.674              3.285               
H              22.87               16.249              0.574               
H              21.244              16.496              2.897               
H              23.901              17.615              2.515               
H              23.176              17.486              3.973               
H              22.017              14.858              3.202               
H              23.322              13.737              3.4                 
N              21.864              19.306              1.463               
C              21.435              20.692              1.366               
C              20.006              20.85               0.853               
O              19.284              21.748              1.284               
C              22.426              21.463              0.492               
C              23.811              21.551              1.138               
C              24.931              21.378              0.12                
N              25.075              22.525              -0.766              
C              25.807              22.521              -1.879              
N              26.459              21.423              -2.248              
N              25.892              23.615              -2.62               
H              22.577              18.879              0.841               
H              21.492              21.117              2.289               
H              22.52               20.99               -0.368              
H              22.089              22.381              0.369               
H              23.916              22.444              1.569               
H              23.9                20.832              1.824               
H              25.784              21.238              0.623               
H              24.728              20.562              -0.423              
H              24.593              23.374              -0.525              
H              26.396              20.585              -1.714              
H              27.024              21.438              -3.081              
H              25.387              24.439              -2.349              
H              26.453              23.624              -3.445              
N              19.594              19.986              -0.067              
H              20.297              19.296              -0.373              
H              13.707              18.2936             -8.22527            
H              17.5144             27.9579             -1.08246            
H              18.6489             20.0256             -0.425735           
H              23.5566             11.4337             4.92223             
