165
2.xyz
C              61.383              0.99                6.124               
C              62.88               1.289               6.223               
O              63.29               2.428               6.318               
C              60.589              2.252               6.464               
C              60.665              2.511               7.969               
H              61.211              0.631               5.209               
H              60.99               3.016               5.996               
H              59.649              2.111               6.219               
O              60.134              1.752               8.755               
N              61.308              3.558               8.407               
H              61.737              4.178               7.722               
H              61.386              3.76                9.373               
N              63.7                0.275               6.2                 
C              65.168              0.505               6.291               
C              65.878              -0.298              5.199               
O              67.086              -0.422              5.191               
C              65.671              0.057               7.666               
O              67.061              0.333               7.772               
C              65.431              -1.443              7.836               
H              63.287              -0.659              6.118               
H              65.338              1.476               6.136               
H              65.181              0.59                8.386               
H              65.943              -1.947              7.139               
H              65.737              -1.732              8.745               
H              64.454              -1.641              7.737               
H              67.213              1.282               8.074               
N              65.136              -0.843              4.273               
C              65.769              -1.634              3.182               
C              66.129              -0.702              2.026               
O              67.277              -0.578              1.647               
C              64.791              -2.704              2.69                
C              64.8                -3.887              3.661               
C              64.624              -5.191              2.88                
O              64.063              -5.139              1.798               
O              65.054              -6.218              3.377               
H              64.124              -0.698              4.34                
H              66.591              -2.074              3.533               
H              63.904              -2.326              2.698               
H              65.101              -3.024              1.835               
H              65.664              -3.92               4.095               
H              64.044              -3.8                4.259               
N              65.156              -0.044              1.467               
C              65.436              0.885               0.336               
C              64.284              1.88                0.191               
O              63.87               2.508               1.146               
H              64.212              -0.196              1.838               
H              66.284              1.375               0.523               
H              65.531              0.354               -0.503              
N              63.764              2.032               -0.996              
C              62.641              2.99                -1.2                
C              61.308              2.271               -0.985              
O              60.272              2.892               -0.861              
C              62.696              3.548               -2.623              
C              63.867              4.524               -2.744              
O              64.991              4.061               -2.846              
O              63.62               5.719               -2.732              
H              64.161              1.471               -1.756              
H              62.725              3.684               -0.487              
H              62.843              2.804               -3.242              
H              61.864              4.033               -2.799              
N              61.322              0.968               -0.94               
C              60.05               0.221               -0.731              
C              60                  -0.3                0.707               
O              60.979              -0.785              1.237               
C              59.975              -0.95               -1.712              
C              59.711              -0.423              -3.087              
C              60.596              0.278               -3.832              
C              58.499              -0.535              -3.889              
N              60.009              0.597               -5.043              
C              58.715              0.12                -5.125              
C              57.248              -1.137              -3.668              
C              57.723              0.176               -6.107              
C              56.248              -1.082              -4.653              
C              56.485              -0.426              -5.87               
H              62.227              0.504               -1.053              
H              59.304              0.871               -0.848              
H              60.836              -1.408              -1.73               
H              59.228              -1.526              -1.466              
H              61.518              0.53                -3.567              
H              60.469              1.117               -5.781              
H              57.057              -1.613              -2.804              
H              57.904              0.652               -6.983              
H              55.377              -1.511              -4.476              
H              55.78               -0.39               -6.558              
N              58.866              -0.191              1.343               
C              58.745              -0.663              2.751               
C              57.597              -1.668              2.857               
O              56.753              -1.751              1.989               
C              58.445              0.536               3.649               
C              59.409              1.637               3.356               
C              60.7                1.478               2.981               
C              59.172              3.065               3.411               
N              61.269              2.727               2.804               
C              60.362              3.739               3.057               
C              58.043              3.827               3.732               
C              60.427              5.133               3.024               
C              58.099              5.229               3.7                 
C              59.29               5.882               3.346               
H              58.082              0.228               0.829               
H              59.592              -1.139              2.975               
H              57.546              0.866               3.452               
H              58.565              0.274               4.583               
H              61.173              0.618               2.851               
H              62.229              2.883               2.524               
H              57.179              3.38                3.988               
H              61.291              5.595               2.77                
H              57.292              5.748               3.93                
H              59.327              6.866               3.323               
N              57.547              -2.426              3.917               
C              56.439              -3.409              4.069               
C              55.282              -2.742              4.815               
O              55.41               -2.365              5.962               
C              56.932              -4.625              4.855               
C              55.871              -5.728              4.812               
C              55.77               -6.295              3.394               
C              56.267              -6.848              5.775               
H              58.287              -2.309              4.613               
H              56.129              -3.668              3.16                
H              57.73               -4.965              4.422               
H              57.05               -4.363              5.78                
H              54.991              -5.345              5.076               
H              56.654              -6.675              3.127               
H              55.076              -7.013              3.374               
H              55.514              -5.564              2.764               
H              56.331              -6.48               6.702               
H              55.575              -7.568              5.747               
H              57.152              -7.223              5.501               
N              54.156              -2.582              4.174               
C              53.008              -1.926              4.859               
C              51.941              -2.965              5.205               
O              51.836              -4                  4.577               
C              52.403              -0.865              3.938               
H              54.111              -2.921              3.211               
H              53.345              -1.511              5.704               
H              52.993              -0.743              3.142               
H              51.497              -1.163              3.641               
H              52.326              -0.002              4.434               
N              51.144              -2.688              6.201               
C              50.075              -3.646              6.597               
C              48.719              -2.937              6.532               
O              48.439              -2.041              7.304               
C              50.336              -4.136              8.026               
C              49.099              -4.799              8.571               
H              51.294              -1.794              6.683               
H              50.075              -4.394              5.94                
H              51.069              -4.799              8.016               
H              50.557              -3.363              8.601               
N              48.798              -6.127              8.315               
C              48.079              -4.328              9.36                
C              47.639              -6.407              8.939               
N              47.158              -5.346              9.591               
H              49.329              -6.754              7.778               
H              48.007              -3.391              9.716               
H              47.19               -7.312              8.913               
N              47.876              -3.33               5.617               
C              46.542              -2.676              5.504               
C              45.823              -3.197              4.259               
O              46.556              -2.82               3.101               
H              48.176              -4.091              5                   
H              46.693              -1.691              5.475               
H              45.775              -4.183              4.304               
H              44.922              -2.793              4.216               
H              47.263              -3.501              2.92                
H              45.9445             -2.90723            6.39662             
H              61.1224             0.201694            6.82059             
