197
1.xyz
C              46.544              1.05                -2.005              
C              45.97               2.166               -2.88               
O              46.161              2.189               -4.079              
C              47.383              1.662               -0.876              
C              48.737              2.104               -1.371              
C              48.828              3.161               -2.276              
C              49.899              1.49                -0.891              
C              50.081              3.606               -2.711              
C              51.153              1.937               -1.319              
C              51.245              2.996               -2.231              
H              45.772              0.512               -1.671              
H              46.909              2.449               -0.541              
H              47.518              0.974               -0.194              
H              48.01               3.602               -2.614              
H              49.833              0.739               -0.247              
H              50.138              4.362               -3.368              
H              51.989              1.493               -0.969              
H              52.136              3.317               -2.539              
N              45.258              3.087               -2.288              
C              44.663              4.196               -3.085              
C              45.051              5.54                -2.464              
O              45.732              5.597               -1.459              
C              43.138              4.06                -3.088              
C              42.743              2.75                -3.771              
C              41.51               2.982               -4.646              
C              40.289              3.217               -3.756              
N              39.06               2.766               -4.469              
H              45.137              3.004               -1.274              
H              45.028              4.147               -4.012              
H              42.825              4.033               -2.162              
H              42.759              4.804               -3.6                
H              43.491              2.445               -4.344              
H              42.525              2.076               -3.08               
H              41.657              3.784               -5.198              
H              41.351              2.18                -5.194              
H              40.396              2.695               -2.919              
H              40.218              4.187               -3.556              
H              38.795              1.864               -4.132              
H              38.322              3.418               -4.3                
H              39.246              2.717               -5.449              
N              44.623              6.622               -3.054              
C              44.967              7.96                -2.499              
C              44.123              8.227               -1.251              
O              42.921              8.39                -1.326              
C              44.681              9.036               -3.548              
C              44.779              10.419              -2.9                
C              44.562              11.497              -3.964              
C              44.871              12.872              -3.368              
N              44.527              13.931              -4.359              
H              44.053              6.5                 -3.897              
H              45.932              7.956               -2.246              
H              45.358              8.976               -4.252              
H              43.769              8.914               -3.881              
H              44.075              10.504              -2.209              
H              45.68               10.531              -2.508              
H              45.178              11.334              -4.715              
H              43.62               11.482              -4.248              
H              44.326              12.996              -2.548              
H              45.839              12.92               -3.155              
H              43.548              13.896              -4.554              
H              44.762              14.826              -3.981              
H              45.043              13.776              -5.201              
N              44.743              8.274               -0.104              
C              43.976              8.53                1.147               
C              43.871              7.237               1.959               
O              43.28               7.207               3.02                
H              45.757              8.129               -0.114              
H              44.451              9.225               1.681               
H              43.063              8.852               0.907               
N              44.439              6.167               1.471               
C              44.368              4.881               2.22                
C              45.45               4.863               3.301               
O              46.603              5.146               3.044               
C              44.592              3.714               1.256               
C              44.441              2.392               2.011               
C              43.86               1.331               1.075               
O              44.1                1.426               -0.117              
O              43.184              0.442               1.566               
H              44.92               6.262               0.572               
H              43.468              4.797               2.639               
H              43.903              3.746               0.581               
H              45.498              3.763               0.93                
H              45.32               2.093               2.283               
H              43.811              2.521               2.734               
N              45.088              4.533               4.51                
C              46.097              4.498               5.605               
C              46.834              3.158               5.576               
O              46.237              2.114               5.404               
C              45.394              4.664               6.954               
C              45.264              6.152               7.283               
C              45.129              6.33                8.796               
N              43.748              6.788               9.12                
C              43.41               8.036               8.934               
N              44.28               8.889               8.463               
N              42.2                8.431               9.221               
H              44.1                4.306               4.657               
H              46.752              5.234               5.45                
H              44.496              4.287               6.887               
H              45.941              4.246               7.646               
H              46.076              6.628               6.987               
H              44.452              6.514               6.856               
H              45.286              5.462               9.228               
H              45.768              7.016               9.087               
H              43.114              6.133               9.471               
H              45.21               8.619               8.214               
H              44.016              9.863               8.339               
H              41.514              7.781               9.567               
H              41.933              9.395               9.099               
N              48.128              3.178               5.742               
C              48.901              1.905               5.724               
C              49.873              1.883               6.905               
O              50.654              2.794               7.095               
C              49.686              1.803               4.416               
C              48.716              1.592               3.253               
C              48.835              2.758               2.27                
C              49.06               0.285               2.535               
H              48.567              4.093               5.881               
H              48.257              1.151               5.824               
H              50.145              2.644               4.27                
H              50.263              1.027               4.466               
H              47.787              1.553               3.605               
H              49.77               2.802               1.921               
H              48.2                2.617               1.512               
H              48.612              3.611               2.74                
H              48.982              -0.476              3.178               
H              48.425              0.149               1.775               
H              49.995              0.336               2.186               
N              49.832              0.85                7.7                 
C              50.755              0.773               8.866               
C              52.145              0.353               8.387               
O              52.401              -0.809              8.137               
C              50.227              -0.256              9.868               
C              50.58               0.188               11.288              
C              49.888              -0.73               12.298              
H              49.149              0.118               7.482               
H              50.823              1.689               9.254               
H              49.249              -0.305              9.795               
H              50.66               -1.122              9.7                 
H              51.554              0.115               11.413              
H              50.257              1.108               11.425              
O              49.624              -1.88               12.009              
N              49.581              -0.267              13.478              
H              49.115              -0.817              14.174              
H              49.832              0.714               13.701              
N              53.045              1.288               8.255               
C              54.417              0.939               7.79                
C              54.997              -0.154              8.689               
O              54.659              -0.262              9.851               
C              55.309              2.182               7.851               
C              54.923              3.141               6.723               
C              56.774              1.77                7.686               
C              54.988              2.405               5.384               
H              52.762              2.246               8.483               
H              54.301              0.54                6.885               
H              55.143              2.641               8.713               
H              54.008              3.454               6.869               
H              55.564              3.881               6.705               
H              57.351              2.582               7.725               
H              57.025              1.145               8.421               
H              56.891              1.317               6.806               
H              54.353              1.638               5.406               
H              54.735              3.036               4.656               
H              55.917              2.074               5.242               
N              55.871              -0.963              8.159               
C              56.479              -2.05               8.978               
C              58                  -1.933              8.918               
O              58.639              -1.49               9.852               
C              56.053              -3.41               8.421               
C              56.65               -4.523              9.284               
C              54.526              -3.514              8.443               
H              56.11               -0.812              7.173               
H              56.189              -1.913              9.921               
H              56.445              -3.509              7.516               
H              56.508              -5.403              8.833               
H              57.628              -4.36               9.402               
H              56.2                -4.527              10.176              
H              54.252              -4.378              8.024               
H              54.211              -3.48               9.39                
H              54.14               -2.75               7.929               
N              58.582              -2.323              7.822               
C              60.062              -2.234              7.688               
C              60.408              -1.161              6.656               
O              60.113              -1.296              5.484               
C              60.617              -3.584              7.23                
C              61.792              -3.983              8.124               
H              57.979              -2.686              7.075               
H              60.41               -1.924              8.569               
H              59.913              -4.263              7.318               
H              60.942              -3.496              6.308               
O              62.329              -3.164              8.843               
N              62.218              -5.216              8.11                
H              61.751              -5.877              7.492               
H              62.972              -5.517              8.676               
N              61.025              -0.093              7.081               
H              61.242              -0.045              8.081               
H              47.1438             0.381068            -2.61061            
H              61.2734             0.658469            6.41696             
