308
3.xyz
C              13.993              13.892              14.547              
C              13.691              12.744              13.586              
O              12.864              12.869              12.684              
C              14.042              15.171              13.677              
O              15.148              15.006              12.775              
C              14.272              16.455              14.462              
H              13.288              13.905              15.258              
H              13.195              15.228              13.136              
H              13.545              17.113              14.257              
H              14.269              16.257              15.445              
H              15.157              16.853              14.21               
H              15.848              15.706              12.951              
N              14.37               11.613              13.795              
C              14.236              10.459              12.926              
C              12.956              9.686               12.998              
O              12.487              9.294               11.912              
C              15.463              9.549               12.978              
C              16.756              10.322              12.651              
C              16.681              11.135              11.357              
C              17.583              12.369              11.37               
N              17.288              13.312              12.488              
H              14.996              11.637              14.629              
H              14.375              10.779              11.948              
H              15.549              9.184               13.889              
H              15.357              8.835               12.306              
H              16.956              10.947              13.415              
H              17.513              9.662               12.576              
H              16.958              10.549              10.595              
H              15.737              11.435              11.221              
H              18.543              12.065              11.44               
H              17.476              12.856              10.492              
H              17.154              12.793              13.331              
H              18.056              13.941              12.6                
H              16.459              13.827              12.275              
N              12.333              9.481               14.142              
C              11.059              8.742               14.148              
C              9.914               9.658               14.541              
O              8.746               9.419               14.279              
C              11.154              7.611               15.175              
C              11.804              6.361               14.612              
O              11.962              6.247               13.37               
O              12.145              5.463               15.436              
H              12.779              9.855               14.981              
H              10.893              8.441               13.204              
H              11.697              7.936               15.94               
H              10.233              7.387               15.471              
N              10.295              10.737              15.201              
C              9.409               11.761              15.698              
C              10.206              13.051              15.907              
O              11.42               13.028              15.744              
C              8.828               11.448              17.064              
C              9.59                10.926              18.222              
C              11.032              11.358              18.385              
N              11.95               10.741              17.429              
C              13.282              10.749              17.428              
N              13.954              11.383              18.395              
N              13.941              10.105              16.461              
H              11.351              10.788              15.34               
H              8.693               11.94               15.023              
H              8.332               12.321              17.383              
H              8.02                10.793              16.901              
H              9.102               11.171              19.097              
H              9.587               9.895               18.201              
H              11.073              12.357              18.28               
H              11.325              11.121              19.318              
H              11.507              10.227              16.643              
H              13.468              11.837              19.135              
H              14.957              11.397              18.371              
H              13.431              9.608               15.76               
H              14.938              10.121              16.442              
N              9.475               14.091              16.273              
C              10.151              15.364              16.548              
C              10.341              15.387              18.064              
O              9.314               15.438              18.764              
C              9.304               16.558              16.155              
S              8.894               16.734              14.403              
H              8.472               13.944              16.343              
H              11.038              15.344              16.126              
H              8.437               16.513              16.676              
H              9.79                17.397              16.448              
N              11.552              15.29               18.574              
C              11.709              15.347              20.059              
C              11.319              16.785              20.425              
O              11.864              17.706              19.81               
C              13.166              15.063              20.392              
C              13.436              14.79               21.863              
C              14.922              14.773              22.203              
C              15.063              14.449              23.694              
N              16.471              14.398              24.151              
H              12.326              15.181              17.931              
H              11.072              14.727              20.463              
H              13.459              14.262              19.867              
H              13.713              15.856              20.116              
H              12.988              15.502              22.416              
H              13.039              13.899              22.11               
H              15.362              14.067              21.687              
H              15.301              15.661              22.04               
H              14.565              15.152              24.22               
H              14.622              13.558              23.869              
H              16.687              13.474              24.468              
H              17.078              14.64               23.393              
H              16.603              15.046              24.902              
N              10.394              17.001              21.34               
C              9.924               18.326              21.706              
C              10.945              19.252              22.321              
O              11.044              20.423              21.922              
C              8.776               18.064              22.693              
C              8.422               16.632              22.491              
C              9.678               15.944              22.085              
H              9.475               18.779              20.891              
H              9.079               18.233              23.635              
H              7.997               18.663              22.491              
H              8.05                16.238              23.345              
H              7.711               16.544              21.777              
H              10.216              15.652              22.873              
H              9.501               15.161              21.49               
N              11.733              18.786              23.288              
C              12.714              19.656              23.936              
C              14.095              19.036              23.968              
O              14.2                17.843              24.263              
C              12.297              19.866              25.426              
C              13.16               20.94               26.06               
C              10.86               20.321              25.557              
H              11.595              17.794              23.531              
H              12.766              20.515              23.403              
H              12.48               19.016              25.903              
H              14.055              20.558              26.295              
H              13.282              21.697              25.417              
H              12.718              21.28               26.891              
H              10.47               19.957              26.405              
H              10.826              21.322              25.577              
H              10.33               19.986              24.776              
N              15.159              19.798              23.674              
H              14.976              20.751              23.408              
C              11.198              23.612              20.346              
O              11.293              24.538              19.536              
N              10.417              22.566              20.196              
C              9.606               22.412              19.006              
C              8.586               23.532              18.882              
O              7.989               23.884              19.908              
C              8.835               21.099              19.097              
C              8.448               20.531              17.744              
C              7.618               19.263              17.816              
O              7.355               18.695              18.895              
O              7.204               18.809              16.718              
H              10.431              21.884              20.976              
H              10.198              22.406              18.187              
H              9.413               20.441              19.543              
H              8.007               21.27               19.597              
H              7.911               21.21               17.265              
H              9.276               20.315              17.249              
N              8.356               24.055              17.679              
C              7.385               25.123              17.489              
C              5.967               24.566              17.424              
O              5.724               23.384              17.215              
C              7.601               25.93               16.208              
O              7.306               25.021              15.149              
C              9.032               26.408              16.07               
H              8.917               23.643              16.91               
H              7.441               25.752              18.274              
H              6.937               26.683              16.177              
H              9.661               25.627              16.116              
H              9.155               26.874              15.19               
H              9.253               27.048              16.811              
H              8.034               24.331              15.064              
N              5.002               25.464              17.646              
C              3.591               25.078              17.672              
C              3.158               24.544              16.312              
O              2.318               23.646              16.26               
H              5.335               26.433              17.794              
H              3.452               24.368              18.369              
H              3.031               25.877              17.91               
N              3.716               25.078              15.24               
C              3.358               24.617              13.906              
C              4.083               23.338              13.494              
O              3.519               22.577              12.71               
C              3.68                25.674              12.841              
O              5.088               25.828              12.71               
H              4.405               25.826              15.423              
H              2.361               24.422              13.898              
H              3.305               25.378              11.973              
H              3.285               26.539              13.12               
H              5.526               25.616              13.582              
N              5.291               23.1                13.946              
C              6.069               21.923              13.606              
C              5.235               20.661              13.468              
O              4.333               20.406              14.279              
C              7.076               21.702              14.756              
O              7.939               20.639              14.469              
H              5.663               23.851              14.593              
H              6.523               22.094              12.71               
H              7.601               22.54               14.873              
H              6.56                21.502              15.584              
H              8.127               20.116              15.303              
N              5.494               19.849              12.435              
C              4.759               18.598              12.239              
C              5.707               17.592              11.585              
O              6.288               17.893              10.546              
C              3.535               18.706              11.337              
C              3.712               19.74               10.199              
C              2.797               20.94               10.422              
C              3.168               22.184              9.63                
N              2.265               23.35               9.925               
H              6.244               20.179              11.802              
H              4.477               18.244              13.125              
H              3.366               17.824              10.918              
H              2.758               18.99               11.884              
H              4.657               20.045              10.194              
H              3.479               19.305              9.338               
H              1.856               20.674              10.174              
H              2.808               21.173              11.403              
H              4.114               22.445              9.851               
H              3.115               21.976              8.647               
H              2.799               24.071              10.361              
H              1.877               23.683              9.069               
H              1.536               23.049              10.535              
N              5.865               16.455              12.226              
C              6.734               15.392              11.736              
C              6.285               14.943              10.35               
O              5.074               14.801              10.121              
C              6.587               14.204              12.71               
C              7.466               13.079              12.22               
C              8.851               13.17               12.337              
C              6.915               11.976              11.585              
C              9.675               12.175              11.847              
C              7.735               10.965              11.115              
C              9.104               11.073              11.245              
O              9.907               10.067              10.762              
H              5.318               16.373              13.115              
H              7.667               15.755              11.66               
H              6.897               14.489              13.587              
H              5.66                13.909              12.693              
H              9.255               13.971              12.784              
H              5.931               11.911              11.468              
H              10.667              12.252              11.928              
H              7.334               10.155              10.68               
H              10.715              9.984               11.343              
N              7.197               14.693              9.421               
C              8.615               14.795              9.617               
C              9.274               16.12               9.362               
O              10.511              16.137              9.304               
C              9.136               13.801              8.526               
C              8.218               14.176              7.394               
C              6.866               14.244              8.048               
H              8.868               14.451              10.573              
H              10.07               13.997              8.31                
H              8.992               12.879              8.814               
H              8.479               15.059              7.013               
H              8.24                13.478              6.684               
H              6.273               14.907              7.6                 
H              6.423               13.351              8.072               
N              8.52                17.188              9.192               
C              9.156               18.507              8.97                
C              9.238               19.218              10.33               
O              8.441               20.11               10.618              
C              8.287               19.342              8.022               
C              7.945               18.547              6.754               
H              7.508               17.046              9.223               
H              10.086              18.334              8.675               
H              7.445               19.57               8.482               
H              8.791               20.148              7.757               
O              8.874               18.007              6.133               
N              6.669               18.473              6.401               
H              5.981               18.941              6.969               
H              6.393               17.967              5.593               
N              10.17               18.763              11.16               
C              10.334              19.309              12.507              
C              10.965              20.684              12.52               
O              11.988              20.934              11.886              
C              11.201              18.365              13.357              
S              10.567              16.677              13.364              
H              10.762              18                  10.778              
H              9.412               19.377              12.929              
H              12.112              18.359              12.975              
H              11.203              18.705              14.286              
N              10.358              21.599              13.253              
C              10.853              22.969              13.351              
C              11.053              23.293              14.835              
O              10.243              22.935              15.691              
C              9.856               23.935              12.769              
H              9.505               21.267              13.751              
H              11.733              23.031              12.892              
H              10.222              24.868              12.804              
H              9.665               23.696              11.814              
H              9.001               23.901              13.291              
N              12.156              23.964              15.109              
C              12.487              24.276              16.489              
C              13.826              23.515              16.79               
C              13.511              22.037              16.881              
C              13.045              21.526              18.091              
C              13.603              21.184              15.783              
C              12.71               20.196              18.195              
C              13.252              19.837              15.9                
C              12.802              19.354              17.11               
O              12.438              18.041              17.273              
H              12.731              24.233              14.301              
H              11.69               24.022              17.069              
H              14.425              23.669              16.045              
H              14.153              23.825              17.648              
H              12.957              22.129              18.88               
H              13.919              21.534              14.909              
H              12.389              19.829              19.085              
H              13.329              19.233              15.108              
H              12.232              17.873              18.236              
H              14.9436             13.7348             15.0179             
H              12.7017             25.3252             16.6484             
H              11.7703             23.6671             21.2269             
H              16.0812             19.3678             23.7378             
