179
5.xyz
C              16.488              19.178              23.766              
C              17.554              20.207              24.047              
O              17.666              21.185              23.295              
C              16.839              18.377              22.523              
C              18.076              17.53               22.752              
H              16.459              18.547              24.552              
H              16.082              17.777              22.306              
H              17.02               19.006              21.779              
O              17.994              16.524              23.458              
N              19.228              17.911              22.21               
H              19.229              18.765              21.666              
H              20.05               17.385              22.332              
N              18.397              20.042              25.08               
C              19.425              21.06               25.315              
C              20.809              20.651              24.844              
O              21.18               19.531              25.112              
C              19.549              21.31               26.838              
O              18.243              21.674              27.316              
C              20.485              22.452              27.185              
H              18.263              19.208              25.639              
H              19.152              21.904              24.815              
H              19.824              20.449              27.287              
H              19.974              23.315              27.218              
H              20.908              22.288              28.08               
H              21.206              22.526              26.492              
H              17.631              21.864              26.542              
N              21.571              21.549              24.217              
C              22.932              21.236              23.792              
C              23.881              22.049              24.661              
O              23.569              23.225              24.929              
C              23.198              21.639              22.334              
C              22.571              20.702              21.353              
C              23.185              19.502              21.033              
C              21.38               21.037              20.739              
C              22.601              18.661              20.104              
C              20.78               20.19               19.81               
C              21.387              18.979              19.496              
H              21.119              22.47               24.062              
H              23.092              20.279              24.006              
H              22.814              22.535              22.198              
H              24.173              21.629              22.196              
H              24.037              19.244              21.466              
H              20.932              21.908              20.964              
H              23.069              17.792              19.859              
H              19.913              20.46               19.371              
H              20.97               18.351              18.855              
N              24.974              21.475              25.132              
C              25.902              22.185              25.982              
C              27.182              22.526              25.224              
O              27.743              21.645              24.557              
C              26.263              21.344              27.231              
C              27.051              22.219              28.192              
C              25                  20.884              27.917              
H              25.104              20.482              24.84               
H              25.476              23.052              26.268              
H              26.863              20.617              26.937              
H              27.627              21.644              28.773              
H              27.628              22.85               27.674              
H              26.419              22.741              28.765              
H              25.166              20.791              28.901              
H              24.272              21.555              27.766              
H              24.717              19.998              27.543              
N              27.592              23.782              25.302              
C              28.793              24.226              24.616              
C              29.926              24.402              25.616              
O              30.323              25.533              25.904              
C              28.567              25.573              23.909              
C              27.389              25.59               22.988              
H              26.997              24.404              25.88               
H              29.064              23.522              23.954              
H              28.436              26.287              24.608              
H              29.391              25.799              23.376              
N              27.405              25.095              21.719              
C              26.142              26.079              23.145              
C              26.221              25.226              21.15               
N              25.427              25.817              22.013              
H              25.797              26.558              23.962              
H              25.978              24.931              20.233              
H              24.461              26.037              21.865              
N              30.401              23.328              26.211              
C              31.504              23.316              27.159              
C              32.282              22.037              26.845              
O              31.701              21.202              26.132              
C              31.054              23.243              28.604              
C              30.254              24.448              29.068              
C              31.009              25.743              29.042              
O              32.265              25.692              28.963              
O              30.375              26.829              29.074              
H              29.894              22.433              25.933              
H              32.084              24.097              27.02               
H              30.477              22.449              28.705              
H              31.857              23.185              29.172              
H              29.469              24.541              28.469              
H              29.966              24.283              30.003              
N              33.512              21.895              27.309              
C              34.227              20.634              26.976              
C              33.581              19.457              27.688              
O              32.895              19.622              28.715              
C              35.684              20.702              27.407              
O              35.79               20.713              28.806              
H              33.898              22.641              27.859              
H              34.141              20.494              25.988              
H              36.163              19.905              27.047              
H              36.088              21.536              27.04               
H              35.503              21.604              29.162              
N              33.788              18.246              27.165              
C              33.21               17.041              27.754              
C              33.732              16.854              29.166              
O              32.957              16.456              30.022              
C              33.555              15.797              26.943              
C              33.046              14.461              27.486              
C              31.533              14.433              27.466              
C              33.568              13.364              26.577              
H              34.387              18.238              26.316              
H              32.214              17.151              27.792              
H              33.17               15.91               26.028              
H              34.549              15.733              26.885              
H              33.372              14.348              28.423              
H              31.205              14.55               26.527              
H              31.206              13.556              27.823              
H              31.173              15.175              28.035              
H              34.569              13.378              26.573              
H              33.251              12.473              26.907              
H              33.232              13.51               25.645              
N              34.989              17.155              29.388              
C              35.573              17.042              30.716              
C              34.841              17.968              31.69               
O              34.556              17.53               32.814              
C              37.033              17.411              30.696              
H              35.524              17.474              28.556              
H              35.472              16.098              31.04               
H              37.279              17.879              31.548              
H              37.593              16.585              30.604              
H              37.221              18.021              29.923              
N              34.526              19.184              31.271              
C              33.814              20.1                32.147              
C              32.397              19.633              32.468              
O              31.914              19.901              33.573              
C              33.716              21.498              31.52               
C              34.979              22.288              31.794              
O              35.819              21.833              32.605              
O              35.124              23.368              31.212              
H              34.818              19.413              30.31               
H              34.319              20.13               33.026              
H              33.61               21.389              30.548              
H              32.951              21.962              31.928              
N              31.737              18.946              31.526              
C              30.385              18.457              31.749              
C              30.405              17.241              32.651              
O              29.558              17.047              33.553              
C              29.65               18.241              30.421              
C              28.295              17.564              30.572              
C              29.335              19.594              29.761              
H              32.267              18.8                30.648              
H              29.862              19.182              32.211              
H              30.217              17.631              29.852              
H              27.573              18.255              30.555              
H              28.157              16.921              29.819              
H              28.263              17.071              31.441              
H              28.658              19.452              29.043              
H              28.975              20.214              30.454              
H              30.174              19.965              29.371              
N              31.405              16.36               32.461              
C              31.484              15.155              33.318              
C              32.528              14.166              32.84               
C              32.176              13.478              31.533              
C              33.384              12.864              30.853              
H              32.063              16.583              31.72               
H              30.579              14.725              33.318              
H              33.399              14.647              32.711              
H              32.65               13.456              33.54               
H              31.513              12.753              31.72               
H              31.769              14.151              30.915              
O              34.529              13.256              31.121              
N              33.135              11.92               29.951              
H              33.894              11.471              29.443              
H              32.169              11.65               29.775              
H              15.5206             19.6293             23.699              
H              31.7289             15.4322             34.3507             
