229
1.xyz
C              24.042              31.887              15.404              
O              23.989              33.115              15.456              
N              23.084              31.125              14.874              
C              21.883              31.648              14.266              
C              20.616              31.012              14.802              
O              20.665              30.028              15.528              
C              21.922              31.182              12.775              
O              21.525              29.824              12.677              
H              23.289              30.091              14.941              
H              21.836              32.645              14.464              
H              21.297              31.749              12.261              
H              22.85               31.281              12.448              
H              21.484              29.558              11.715              
N              19.5                31.546              14.357              
C              18.191              31.051              14.756              
C              17.928              29.699              14.109              
O              16.967              28.988              14.41               
C              17.105              32.046              14.351              
O              16.901              32.103              12.958              
H              19.628              32.348              13.699              
H              18.194              30.922              15.751              
H              16.245              31.78               14.796              
H              17.369              32.958              14.68               
H              17.046              31.197              12.559              
N              18.831              29.318              13.2                
C              18.64               28.022              12.546              
C              19.454              26.908              13.187              
O              19.319              25.731              12.808              
C              18.903              28.158              11.043              
C              17.754              27.522              10.258              
O              16.676              28.127              10.152              
N              18.021              26.344              9.686               
H              19.594              29.956              13.022              
H              17.663              27.777              12.656              
H              18.946              29.112              10.814              
H              19.733              27.681              10.823              
H              18.924              25.932              9.791               
H              17.314              25.879              9.154               
N              20.261              27.215              14.201              
C              21.075              26.249              14.92               
C              20.307              25.021              15.364              
O              20.75               23.924              15.005              
C              21.751              26.863              16.142              
C              22.539              25.885              16.992              
C              21.905              25.209              18.038              
C              23.891              25.646              16.75               
C              22.627              24.322              18.823              
C              24.619              24.771              17.541              
C              23.969              24.112              18.568              
O              24.668              23.231              19.379              
H              20.258              28.244              14.442              
H              21.826              25.946              14.301              
H              22.379              27.577              15.83               
H              21.045              27.274              16.72               
H              20.942              25.364              18.218              
H              24.342              26.114              15.991              
H              22.174              23.833              19.574              
H              25.586              24.621              17.374              
H              25.592              23.127              19.02               
N              19.214              25.106              16.103              
C              18.496              23.907              16.502              
C              17.948              23.071              15.371              
O              17.977              21.827              15.43               
C              17.292              24.288              17.371              
S              17.8                24.873              18.986              
H              18.926              26.063              16.362              
H              19.142              23.322              17.046              
H              16.799              25.009              16.911              
H              16.731              23.483              17.486              
N              17.396              23.685              14.338              
C              16.852              22.912              13.226              
C              17.941              22.014              12.638              
O              17.678              20.843              12.331              
C              16.313              23.833              12.154              
C              14.922              24.367              12.448              
H              17.383              24.714              14.383              
H              16.146              22.308              13.599              
H              16.934              24.614              12.058              
H              16.279              23.332              11.286              
O              14.62               25.504              12.063              
N              14.069              23.617              13.089              
H              14.37               22.689              13.38               
H              13.151              23.925              13.296              
N              19.152              22.497              12.501              
C              20.271              21.73               11.984              
C              20.773              20.633              12.919              
O              20.865              19.485              12.501              
C              21.485              22.662              11.781              
C              21.226              23.679              10.677              
C              22.194              24.845              10.775              
O              22.112              25.758              9.931               
N              23.103              24.797              11.743              
H              19.251              23.505              12.801              
H              19.969              21.279              11.119              
H              21.653              23.15               12.624              
H              22.266              22.111              11.524              
H              21.35               23.236              9.798               
H              20.3                24.024              10.77               
H              23.787              25.532              11.857              
H              23.099              23.995              12.377              
N              21.121              20.985              14.161              
C              21.613              20.031              15.129              
C              20.612              18.956              15.502              
O              21.039              17.82               15.73               
C              22.033              20.713              16.437              
C              23.195              21.656              16.214              
S              24.655              20.696              15.77               
C              25.042              19.968              17.358              
H              21.004              22.004              14.361              
H              22.433              19.569              14.731              
H              21.26               21.231              16.794              
H              22.306              20.013              17.093              
H              22.958              22.306              15.479              
H              23.359              22.187              17.057              
H              24.526              20.436              18.078              
H              24.796              18.997              17.352              
H              26.022              20.06               17.541              
N              19.329              19.292              15.613              
C              18.358              18.269              15.953              
C              18.354              17.194              14.867              
O              18.203              16.023              15.168              
C              16.943              18.797              16.149              
C              16.779              19.729              17.345              
S              17.035              18.888              18.928              
C              15.588              17.803              18.986              
H              19.109              20.276              15.446              
H              18.637              17.837              16.811              
H              16.659              19.298              15.319              
H              16.313              18.016              16.27               
H              17.435              20.509              17.241              
H              15.844              20.147              17.306              
H              15.75               17.077              19.652              
H              14.79               18.338              19.256              
H              15.44               17.407              18.082              
N              18.564              17.603              13.619              
C              18.555              16.631              12.527              
C              19.864              15.864              12.455              
O              19.926              14.631              12.37               
C              18.322              17.41               11.226              
C              18.315              16.648              9.918               
C              18.282              17.581              8.709               
C              19.46               18.552              8.682               
N              19.431              19.57               7.578               
H              18.724              18.607              13.498              
H              17.802              15.977              12.683              
H              17.431              17.894              11.314              
H              19.039              18.131              11.169              
H              19.141              16.081              9.86                
H              17.508              16.054              9.884               
H              18.308              17.029              7.877               
H              17.436              18.111              8.735               
H              19.498              19.042              9.572               
H              20.321              18.016              8.605               
H              19.461              20.483              7.978               
H              20.222              19.431              6.987               
H              18.591              19.456              7.053               
N              20.963              16.62               12.507              
C              22.246              15.944              12.409              
C              22.509              14.989              13.547              
O              23.306              14.062              13.377              
C              23.388              16.91               12.226              
O              23.693              17.711              13.331              
H              20.826              17.614              12.611              
H              22.25               15.41               11.542              
H              24.222              16.383              11.968              
H              23.176              17.518              11.435              
H              22.919              17.726              13.968              
N              21.895              15.165              14.704              
C              22.158              14.256              15.828              
C              21.104              13.159              15.868              
O              21.045              12.363              16.803              
C              22.259              14.966              17.175              
C              23.421              15.933              17.313              
C              24.773              15.273              17.156              
N              25.885              16.188              17.352              
C              26.529              16.518              18.457              
N              26.217              15.967              19.621              
N              27.471              17.456              18.45               
H              21.244              15.958              14.753              
H              23.059              13.836              15.696              
H              21.411              15.479              17.322              
H              22.35               14.27               17.889              
H              23.34               16.651              16.614              
H              23.387              16.364              18.221              
H              24.836              14.529              17.826              
H              24.823              14.885              16.232              
H              26.233              16.662              16.481              
H              25.499              15.274              19.679              
H              26.706              16.245              20.453              
H              27.701              17.901              17.577              
H              27.938              17.711              19.286              
N              20.281              13.108              14.835              
C              19.237              12.141              14.632              
C              18.121              12.164              15.645              
O              17.504              11.13               15.927              
C              19.824              10.715              14.58               
C              21.045              10.646              13.684              
H              20.47               13.891              14.125              
H              18.813              12.341              13.717              
H              20.085              10.455              15.499              
H              19.128              10.108              14.222              
O              20.95               10.936              12.488              
N              22.216              10.345              14.233              
H              22.243              10.168              15.227              
H              23.037              10.294              13.687              
N              17.8                13.346              16.149              
C              16.733              13.443              17.143              
C              15.368              13.682              16.528              
O              14.371              13.841              17.234              
C              17.091              14.563              18.13               
C              18.545              14.455              18.646              
C              18.83               15.552              19.653              
C              18.758              13.119              19.32               
H              18.337              14.146              15.8                
H              16.704              12.571              17.663              
H              17.011              15.42               17.664              
H              16.5                14.49               18.906              
H              19.163              14.54               17.868              
H              18.203              15.468              20.429              
H              19.773              15.473              19.98               
H              18.704              16.447              19.222              
H              18.588              12.378              18.667              
H              19.701              13.053              19.653              
H              18.129              13.025              20.095              
N              15.299              13.676              15.194              
H              16.17               13.519              14.696              
H              14.3928             13.8259             14.7451             
H              24.8663             31.3237             15.7642             
H              18.0105             23.7798             19.6809             
