283
6.xyz
C              31.825              15.541              34.756              
O              31.484              14.802              35.665              
N              32.459              16.695              34.959              
C              32.82               17.138              36.292              
C              31.576              17.474              37.09               
O              31.609              17.349              38.319              
C              33.706              18.366              36.214              
H              32.665              17.234              34.095              
H              33.313              16.396              36.76               
H              33.185              19.175              36.487              
H              34.49               18.256              36.827              
H              34.034              18.486              35.276              
N              30.48               17.849              36.443              
C              29.259              18.19               37.162              
C              28.767              17.076              38.064              
O              28.088              17.252              39.091              
C              28.15               18.611              36.175              
C              26.831              18.872              36.894              
C              28.58               19.889              35.475              
H              30.566              17.877              35.412              
H              29.455              19.001              37.743              
H              27.995              17.848              35.551              
H              26.076              18.784              36.245              
H              26.717              18.207              37.631              
H              26.837              19.796              37.276              
H              27.977              20.638              35.753              
H              29.523              20.105              35.73               
H              28.521              19.76               34.485              
N              29.151              15.854              37.75               
C              28.774              14.677              38.509              
C              29.378              14.655              39.901              
O              29.033              13.831              40.738              
C              29.194              13.416              37.757              
S              28.176              13.052              36.292              
H              29.761              15.804              36.892              
H              27.763              14.672              38.606              
H              30.137              13.528              37.456              
H              29.124              12.641              38.38               
N              30.28               15.604              40.169              
C              30.881              15.621              41.503              
C              30.667              16.98               42.131              
O              31.409              17.366              43.02               
C              32.347              15.24               41.477              
O              33.079              15.86               40.431              
H              30.49               16.254              39.425              
H              30.409              14.938              42.062              
H              32.769              15.496              42.356              
H              32.424              14.241              41.37               
H              32.447              16.327              39.815              
N              29.637              17.662              41.667              
C              29.315              18.98               42.177              
C              28.128              19.014              43.098              
O              28.105              18.259              44.073              
C              29.279              20.02               41.039              
C              30.621              20.094              40.3                
C              30.763              21.032              39.136              
H              29.091              17.184              40.923              
H              30.128              19.317              42.699              
H              28.582              19.757              40.389              
H              29.091              20.911              41.427              
H              31.343              20.326              40.995              
H              30.851              19.143              39.983              
O              30.093              22.044              38.973              
N              31.717              20.719              38.234              
H              31.861              21.299              37.415              
H              32.282              19.893              38.398              
N              27.114              19.827              42.935              
H              27.169              20.415              42.054              
C              24.914              10.46               36.56               
C              24.79               9.039               37.116              
O              24.058              8.749               38.064              
C              26.142              11.074              37.247              
S              26.309              12.853              36.979              
H              25.043              10.387              35.564              
H              26.062              10.909              38.224              
H              26.953              10.624              36.886              
N              25.567              8.181               36.482              
C              25.63               6.788               36.887              
C              26.831              6.083               36.279              
O              27.467              6.538               35.338              
C              24.333              6.044               36.606              
C              24.143              5.577               35.207              
C              22.788              4.969               34.919              
O              21.869              5.128               35.756              
O              22.689              4.367               33.801              
H              26.112              8.576               35.694              
H              25.681              6.728               37.895              
H              24.315              5.248               37.205              
H              23.584              6.66                36.833              
H              24.251              6.351               34.591              
H              24.823              4.879               35.003              
N              27.198              4.958               36.887              
C              28.291              4.157               36.43               
C              29.646              4.39                37.025              
O              29.869              5.129               37.973              
H              26.612              4.721               37.725              
H              28.042              3.149               36.552              
H              28.363              4.249               35.391              
N              30.601              3.702               36.41               
C              32.009              3.787               36.842              
C              32.813              3.69                35.547              
O              32.855              2.639               34.9                
C              32.271              2.605               37.77               
C              33.4                2.73                38.751              
H              30.286              3.114               35.62               
H              32.146              4.69                37.203              
H              31.413              2.42                38.289              
H              32.439              1.784               37.188              
O              33.889              3.804               39.136              
N              33.879              1.559               39.215              
H              33.496              0.699               38.906              
H              34.631              1.569               39.878              
N              33.39               4.804               35.129              
C              33.299              6.055               35.874              
C              31.881              6.589               35.952              
O              30.998              6.265               35.142              
C              34.237              6.976               35.076              
C              34.139              6.43                33.684              
C              34.161              4.935               33.88               
H              33.692              5.945               36.805              
H              33.919              7.919               35.114              
H              35.168              6.913               35.421              
H              33.288              6.721               33.252              
H              34.916              6.73                33.135              
H              33.707              4.464               33.136              
H              35.086              4.597               34.001              
N              31.622              7.402               36.953              
C              30.309              8.039               37.201              
C              30.224              9.244               36.26               
O              30.884              10.25               36.534              
C              30.395              8.607               38.6                
C              29.105              8.965               39.274              
C              28.117              7.982               39.365              
C              28.921              10.193              39.895              
C              26.923              8.243               40.026              
C              27.73               10.449              40.568              
C              26.772              9.471               40.634              
O              25.591              9.721               41.261              
H              32.445              7.577               37.593              
H              29.603              7.396               36.95               
H              30.877              7.933               39.185              
H              30.971              9.442               38.567              
H              28.269              7.088               38.953              
H              29.628              10.881              39.862              
H              26.203              7.562               40.058              
H              27.582              11.34               40.996              
H              24.884              9.916               40.58               
N              29.476              9.096               35.174              
C              29.354              10.159              34.174              
C              27.897              10.511              33.913              
O              26.998              9.783               34.364              
C              29.965              9.67                32.821              
C              31.468              9.476               32.925              
C              29.39               8.334               32.383              
H              28.994              8.181               35.094              
H              29.814              10.98               34.536              
H              29.803              10.389              32.15               
H              31.929              10.357              32.812              
H              31.696              9.096               33.822              
H              31.775              8.847               32.21               
H              29.141              7.8                 33.191              
H              28.578              8.491               31.821              
H              30.075              7.837               31.85               
N              27.668              11.602              33.167              
C              26.322              12                  32.84               
C              25.649              11.028              31.866              
O              26.22               10.63               30.84               
C              26.496              13.393              32.226              
C              27.93               13.773              32.435              
C              28.682              12.495              32.612              
H              25.755              12.104              33.675              
H              26.27               13.377              31.241              
H              25.881              14.057              32.673              
H              28.273              14.29               31.638              
H              28.018              14.363              33.249              
H              29.024              12.145              31.74               
H              29.447              12.602              33.249              
N              24.422              10.63               32.213              
C              23.635              9.744               31.382              
C              22.312              10.409              31.055              
O              21.613              9.959               30.147              
C              23.392              8.357               31.984              
C              24.704              7.595               32.147              
C              22.726              8.453               33.357              
H              24.091              11.013              33.125              
H              24.128              9.594               30.522              
H              22.835              7.836               31.342              
H              25.47               8.231               32.062              
H              24.727              7.163               33.048              
H              24.771              6.894               31.438              
H              22.168              9.281               33.392              
H              22.15               7.649               33.497              
H              23.433              8.49                34.061              
N              21.889              11.494              31.696              
C              20.586              12.091              31.33               
C              20.609              13.586              31.539              
O              21.275              14.035              32.487              
C              19.487              11.415              32.16               
C              18.286              12.233              32.481              
H              22.502              11.862              32.421              
H              20.424              11.9                30.357              
H              19.18               10.577              31.666              
H              19.898              11.094              33.037              
N              17.196              12.415              31.624              
C              17.977              12.961              33.599              
C              16.294              13.228              32.187              
N              16.763              13.563              33.39               
H              18.543              13.036              34.419              
H              15.447              13.523              31.787              
H              16.29               14.166              34.04               
N              19.986              14.382              30.689              
C              19.966              15.837              30.892              
C              18.637              16.161              31.605              
O              17.58               15.945              31.016              
C              20.041              16.638              29.611              
C              20.301              18.099              29.853              
C              19.244              18.974              30.121              
C              21.587              18.599              29.833              
C              19.49               20.321              30.323              
C              21.84               19.946              30.042              
C              20.787              20.804              30.291              
H              19.526              13.914              29.892              
H              20.687              16.052              31.531              
H              20.784              16.285              29.067              
H              19.176              16.559              29.144              
H              18.317              18.627              30.167              
H              22.359              17.976              29.664              
H              18.717              20.948              30.492              
H              22.79               20.29               30.009              
H              20.957              21.779              30.45               
N              18.69               16.627              32.84               
C              17.459              16.894              33.573              
C              16.862              18.258              33.363              
O              15.654              18.417              33.122              
C              17.712              16.627              35.07               
C              16.435              16.417              35.854              
O              15.766              15.382              35.658              
O              16.061              17.303              36.645              
H              19.633              16.778              33.223              
H              16.769              16.206              33.248              
H              18.273              15.81               35.139              
H              18.194              17.413              35.439              
N              17.649              19.338              33.435              
C              17.134              20.685              33.291              
C              18.243              21.719              33.278              
O              19.402              21.43               33.54               
C              16.35               21.043              34.579              
H              18.656              19.12               33.603              
H              16.624              20.748              32.417              
H              15.487              21.466              34.321              
H              16.182              20.208              35.094              
H              16.895              21.677              35.12               
N              17.85               22.936              32.952              
C              18.775              24.061              32.958              
C              18.119              25.062              33.939              
O              16.898              25.221              33.932              
C              19.064              24.641              31.611              
O              17.932              25.249              31.016              
H              16.847              23.022              32.696              
H              19.62               23.774              33.355              
H              19.789              25.336              31.692              
H              19.391              23.914              30.995              
H              17.329              24.543              30.647              
N              18.907              25.641              34.828              
C              18.375              26.585              35.796              
C              19.051              27.938              35.665              
O              18.313              28.955              35.573              
C              18.526              26.017              37.221              
C              17.942              27.006              38.215              
C              17.663              24.772              37.293              
O              20.305              28.029              35.599              
H              19.906              25.372              34.776              
H              17.392              26.708              35.608              
H              19.494              25.945              37.415              
H              18.678              27.552              38.616              
H              17.297              27.611              37.747              
H              17.464              26.51               38.94               
H              18.141              24.01               36.854              
H              17.484              24.546              38.251              
H              16.796              24.94               36.821              
H              31.587              15.2716             33.7523             
H              24.0427             11.0103             36.7507             
H              26.3278             19.9103             43.5789             
