371
2.xyz
C              25.981              19.947              43.863              
C              24.895              18.918              43.693              
O              24.16               18.895              42.706              
C              25.44               21.35               43.641              
C              24.341              21.845              44.517              
C              24.774              21.868              45.969              
C              23.868              22.777              46.779              
N              24.203              22.686              48.231              
H              26.35               19.887              44.819              
H              26.229              21.998              43.717              
H              25.127              21.406              42.667              
H              24.085              22.775              44.247              
H              23.543              21.246              44.432              
H              24.715              20.95               46.339              
H              25.702              22.213              46.026              
H              23.991              23.718              46.474              
H              22.919              22.499              46.644              
H              24.374              23.603              48.588              
H              23.437              22.272              48.72               
H              25.02               22.123              48.346              
N              24.777              17.997              44.661              
C              23.76               16.94               44.576              
C              22.385              17.514              44.844              
O              22.159              18.224              45.831              
C              24.075              15.837              45.563              
C              23.146              14.627              45.557              
H              25.44               18.094              45.442              
H              23.767              16.605              43.63               
H              25.017              15.504              45.386              
H              24.066              16.229              46.499              
O              22.775              14.223              46.668              
N              22.775              14.109              44.393              
H              23.134              14.542              43.551              
H              22.173              13.332              44.346              
N              21.446              17.264              43.948              
C              20.078              17.736              44.053              
C              19.133              16.622              43.589              
O              19.559              15.633              42.987              
C              19.802              18.941              43.118              
C              20.452              20.225              43.615              
C              20.295              18.634              41.699              
H              21.782              16.68               43.133              
H              19.878              17.924              45.013              
H              18.812              19.096              43.113              
H              19.891              21.008              43.347              
H              20.529              20.196              44.611              
H              21.363              20.315              43.213              
H              20.955              17.887              41.74               
H              19.515              18.37               41.135              
H              20.728              19.451              41.322              
N              17.837              16.741              43.87               
C              16.908              15.712              43.399              
C              16.659              15.939              41.902              
O              16.754              17.059              41.372              
C              15.543              15.792              44.099              
H              17.566              17.562              44.409              
H              17.327              14.817              43.518              
H              15.584              15.282              44.955              
H              15.326              16.748              44.285              
H              14.847              15.397              43.504              
N              16.403              14.825              41.216              
C              16.068              14.882              39.79               
C              14.558              15.155              39.731              
O              13.892              14.979              40.758              
C              16.265              13.507              39.15               
S              17.951              12.87               39.195              
H              16.459              13.95               41.757              
H              16.534              15.65               39.388              
H              15.668              12.857              39.627              
H              15.976              13.57               38.191              
N              14.01               15.558              38.613              
C              12.583              15.826              38.463              
C              11.736              14.598              38.816              
O              10.624              14.763              39.313              
C              12.222              16.189              37.031              
C              12.284              17.673              36.73               
C              12.356              17.9                35.233              
C              12.645              19.366              34.906              
N              12.563              19.599              33.416              
H              14.688              15.677              37.814              
H              12.324              16.58               39.082              
H              12.856              15.718              36.418              
H              11.29               15.87               36.852              
H              11.465              18.114              37.086              
H              13.095              18.061              37.157              
H              13.088              17.346              34.854              
H              11.485              17.655              34.823              
H              11.972              19.94               35.359              
H              13.561              19.596              35.217              
H              12.58               20.58               33.244              
H              13.343              19.16               32.98               
H              11.713              19.205              33.076              
N              12.248              13.404              38.587              
C              11.552              12.165              38.881              
C              11.713              11.762              40.333              
O              11.283              10.665              40.719              
C              12.1                11.023              38.018              
C              13.482              10.54               38.319              
H              13.215              13.425              38.168              
H              10.567              12.331              38.727              
H              11.455              10.24               38.101              
H              12.064              11.329              37.047              
O              14.2                11.011              39.202              
N              13.971              9.522               37.613              
H              13.385              9.121               36.895              
H              14.876              9.172               37.785              
N              12.379              12.552              41.15               
C              12.547              12.171              42.556              
C              13.807              11.387              42.844              
O              14.145              11.199              44.027              
H              12.754              13.416              40.743              
H              12.536              13.018              43.128              
H              11.734              11.625              42.847              
N              14.502              10.864              41.843              
C              15.736              10.136              42.137              
C              16.754              11.137              42.693              
O              16.599              12.336              42.451              
C              16.34               9.625               40.862              
C              15.641              8.414               40.254              
C              16.497              8.01                39.038              
H              14.123              11.005              40.906              
H              15.543              9.472               42.851              
H              16.33               10.359              40.169              
H              17.303              9.366               41.027              
H              15.649              7.684               40.89               
H              14.763              8.673               39.939              
O              16.822              8.869               38.195              
N              16.911              6.748               39.012              
H              17.467              6.407               38.235              
H              16.662              6.132               39.781              
N              17.787              10.665              43.38               
C              18.775              11.591              43.935              
C              20.157              11.495              43.314              
O              21.154              11.813              43.962              
C              18.933              11.444              45.459              
O              19.021              10.051              45.779              
C              17.781              12.097              46.191              
H              17.83               9.647               43.483              
H              18.427              12.543              43.797              
H              19.8                11.892              45.744              
H              16.913              11.868              45.741              
H              17.75               11.775              47.141              
H              17.894              13.095              46.19               
H              18.499              9.506               45.115              
N              20.239              11.102              42.059              
C              21.538              11                  41.386              
C              21.692              12.143              40.379              
O              22.335              11.995              39.352              
C              21.715              9.647               40.719              
C              20.655              9.323               39.679              
O              19.491              9.683               39.902              
N              20.996              8.67                38.603              
H              19.342              10.878              41.599              
H              22.244              11.128              42.084              
H              22.612              9.626               40.269              
H              21.688              8.936               41.426              
H              21.968              8.391               38.497              
H              20.338              8.443               37.898              
N              21.098              13.296              40.699              
C              21.19               14.479              39.875              
C              22.171              15.462              40.523              
O              22.332              15.411              41.726              
C              19.871              15.161              39.542              
S              19.031              14.274              38.182              
H              20.563              13.26               41.599              
H              21.559              14.225              38.982              
H              19.287              15.128              40.325              
H              20.051              16.073              39.236              
N              22.884              16.229              39.705              
C              23.904              17.178              40.137              
C              23.822              18.469              39.326              
O              23.71               18.412              38.097              
C              25.318              16.604              39.882              
C              25.509              15.388              40.751              
C              25.053              14.155              40.294              
C              26.021              15.479              42.033              
C              25.131              13.029              41.065              
C              26.126              14.342              42.844              
C              25.663              13.143              42.347              
O              25.725              11.989              43.098              
H              22.643              16.09               38.683              
H              23.737              17.406              41.103              
H              25.372              16.339              38.946              
H              25.97               17.282              40.137              
H              24.655              14.098              39.368              
H              26.321              16.358              42.391              
H              24.821              12.145              40.731              
H              26.522              14.407              43.747              
H              25.67               11.2                42.489              
N              23.898              19.577              40.032              
C              23.842              20.879              39.378              
C              25.246              21.481              39.287              
O              26.044              21.293              40.209              
C              22.89               21.799              40.137              
C              22.884              23.22               39.653              
C              21.785              24.09               40.202              
H              23.997              19.453              41.053              
H              23.507              20.745              38.442              
H              21.958              21.43               40.055              
H              23.151              21.794              41.109              
H              23.775              23.648              39.888              
H              22.813              23.219              38.64               
O              21.972              25.289              40.411              
N              20.606              23.527              40.444              
H              19.833              24.05               40.825              
H              20.493              22.529              40.232              
N              25.545              22.169              38.182              
C              26.864              22.783              38.032              
C              26.999              23.948              39.006              
O              26.027              24.653              39.287              
C              27.087              23.237              36.606              
O              26.116              24.203              36.181              
H              24.799              22.225              37.48               
H              27.554              22.099              38.271              
H              27.995              23.651              36.527              
H              27.03               22.447              35.993              
H              26.532              25.108              36.194              
N              28.187              24.141              39.581              
C              28.364              25.255              40.536              
C              28.325              26.562              39.738              
O              27.8                27.597              40.15               
C              29.667              25.136              41.281              
C              29.906              24.016              42.249              
C              29.053              23.789              43.327              
C              31.015              23.198              42.144              
C              29.299              22.76               44.236              
C              31.275              22.18               43.04               
C              30.408              21.976              44.099              
O              30.664              20.953              45.008              
H              28.926              23.489              39.32               
H              27.597              25.249              41.164              
H              30.428              25.107              40.584              
H              29.82               26.02               41.793              
H              28.25               24.372              43.455              
H              31.661              23.349              41.381              
H              28.649              22.604              44.99               
H              32.077              21.597              42.928              
H              30.021              20.211              44.843              
N              28.863              26.483              38.496              
C              28.873              27.671              37.646              
C              27.895              27.58               36.489              
O              27.324              26.522              36.234              
C              30.264              27.83               36.985              
O              30.507              29.239              36.848              
H              29.233              25.572              38.237              
H              28.606              28.465              38.22               
H              30.939              27.444              37.574              
H              30.24               27.422              36.099              
H              29.794              29.636              36.277              
N              27.74               28.677              35.776              
C              26.891              28.762              34.593              
C              27.668              28.233              33.39               
O              28.902              28.233              33.357              
C              26.441              30.188              34.292              
O              27.517              31.109              34.423              
C              25.381              30.592              35.318              
H              28.288              29.504              36.134              
H              26.09               28.181              34.73               
H              26.1                30.232              33.321              
H              24.474              30.562              34.894              
H              25.405              29.959              36.093              
H              25.565              31.521              35.643              
H              27.211              31.948              34.889              
N              26.946              27.71               32.409              
C              27.586              27.182              31.212              
C              26.835              27.676              29.99               
O              25.653              28.006              30.107              
C              27.53               25.653              31.232              
C              28.436              25.062              32.311              
S              28.456              23.277              32.265              
C              29.657              22.89               33.52               
H              25.924              27.71               32.563              
H              28.519              27.54               31.171              
H              26.592              25.361              31.413              
H              27.826              25.302              30.344              
H              29.376              25.448              32.183              
H              28.116              25.407              33.22               
H              29.32               23.184              34.418              
H              29.823              21.901              33.541              
H              30.52               23.362              33.324              
N              27.517              27.744              28.865              
C              26.874              28.187              27.636              
C              25.998              27.045              27.126              
O              26.457              25.931              26.91               
C              27.865              28.517              26.518              
O              27.159              28.716              25.296              
H              28.51               27.467              28.926              
H              26.28               28.955              27.851              
H              28.347              29.348              26.75               
H              28.49               27.758              26.408              
H              27.813              28.879              24.561              
N              24.718              27.318              26.95               
C              23.819              26.272              26.479              
C              22.897              26.823              25.4                
O              22.824              28.028              25.178              
C              23.025              25.658              27.643              
C              22.116              26.653              28.355              
C              23.97               25.101              28.708              
C              20.642              26.454              28.107              
H              24.427              28.277              27.162              
H              24.396              25.581              26.038              
H              22.447              24.923              27.266              
H              22.291              26.592              29.342              
H              22.37               27.579              28.056              
H              23.436              24.653              29.421              
H              24.589              24.441              28.288              
H              24.498              25.849              29.105              
H              20.371              25.543              28.418              
H              20.123              27.145              28.609              
H              20.453              26.541              27.129              
N              22.247              25.925              24.674              
C              21.282              26.255              23.648              
C              20.055              25.391              23.909              
O              20.16               24.163              23.824              
C              21.686              26.022              22.203              
O              22.864              26.766              21.876              
C              20.586              26.505              21.248              
H              22.501              24.926              24.915              
H              21.019              27.207              23.742              
H              21.897              25.025              22.067              
H              19.695              26.193              21.58               
H              20.595              27.504              21.207              
H              20.75               26.132              20.334              
H              22.799              27.133              20.942              
N              18.942              26.044              24.243              
C              17.689              25.306              24.472              
C              16.96               25.215              23.118              
O              16.839              26.198              22.38               
C              16.855              25.988              25.551              
C              15.457              25.442              25.76               
O              14.516              25.721              24.975              
O              15.241              24.692              26.734              
H              19.029              27.063              24.324              
H              17.934              24.382              24.73               
H              17.359              25.915              26.422              
H              16.783              26.965              25.314              
N              16.498              24.027              22.752              
C              15.805              23.782              21.49               
C              14.394              23.339              21.804              
O              14.184              22.35               22.517              
C              16.491              22.708              20.647              
S              18.125              23.185              20.059              
H              16.674              23.265              23.456              
H              15.763              24.641              20.985              
H              16.583              21.888              21.205              
H              15.914              22.52               19.857              
N              13.393              24.049              21.294              
C              12.018              23.691              21.608              
C              11.421              24.839              22.484              
C              9.984               24.498              22.844              
C              9.57                24.93               24.197              
N              10.046              24.322              25.413              
C              9.403               23.595              26.322              
N              8.13                23.277              26.211              
N              10.099              23.254              27.407              
H              13.665              24.832              20.69               
H              12.014              22.791              22.059              
H              11.948              24.893              23.3                
H              11.429              25.652              21.951              
H              9.37                24.926              22.16               
H              9.863               23.494              22.769              
H              9.758               25.966              24.267              
H              8.515               24.907              24.223              
H              11.067              24.472              25.626              
H              7.615               23.574              25.399              
H              7.673               22.745              26.921              
H              11.049              23.506              27.529              
H              9.638               22.716              28.133              
H              11.4291             23.6343             20.7017             
H              17.9145             24.2782             19.3641             
H              26.8057             19.8597             43.1875             
