325
5.xyz
C              -6.524              38.145              15.94               
S              -7.398              38.886              14.558              
H              -5.926              37.448              15.598              
H              -7.182              37.8                16.58               
C              5.535               51.401              9.543               
O              5.883               52.353              10.255              
N              4.32                50.88               9.72                
C              3.543               51.37               10.912              
C              3.023               50.123              11.639              
O              3.086               49.054              11.051              
C              2.334               52.133              10.335              
C              2.7                 53.589              10.117              
C              2.296               54.086              8.764               
C              0.842               54.421              8.699               
N              0.472               55.508              9.594               
H              3.993               50.206              9.068               
H              4.161               51.858              11.502              
H              2.103               51.73               9.472               
H              1.603               52.082              10.986              
H              2.246               54.145              10.825              
H              3.696               53.691              10.226              
H              2.828               54.908              8.547               
H              2.496               53.378              8.083               
H              0.605               54.674              7.746               
H              0.303               53.594              8.932               
H              0.575               56.393              9.128               
H              -0.484              55.408              9.886               
H              1.06                55.503              10.409              
N              2.581               50.228              12.855              
C              1.759               49.186              13.515              
C              0.365               49.199              12.839              
O              -0.059              50.315              12.514              
C              1.463               49.681              14.972              
C              2.737               49.683              15.778              
H              2.845               51.113              13.355              
H              2.174               48.306              13.347              
H              1.112               50.599              14.925              
H              0.822               49.06               15.387              
N              3.147               48.623              16.608              
C              3.626               50.72               15.916              
C              4.357               48.999              17.187              
N              4.658               50.302              16.768              
H              2.691               47.785              16.761              
H              3.556               51.615              15.49               
H              4.898               48.46               17.777              
N              -0.345              48.105              12.872              
C              -1.738              48.101              12.364              
C              -2.695              47.787              13.503              
O              -2.245              47.177              14.481              
C              -1.865              47.065              11.245              
C              -1.572              45.664              11.784              
C              -0.863              47.422              10.145              
C              -2.13               44.507              10.933              
H              0.109               47.269              13.262              
H              -1.923              49.038              12.075              
H              -2.803              47.076              10.916              
H              -0.58               45.547              11.857              
H              -1.964              45.587              12.703              
H              -0.939              46.76               9.403               
H              -1.063              48.336              9.801               
H              0.06                47.4                10.521              
H              -1.73               44.56               10.024              
H              -1.886              43.647              11.368              
H              -3.119              44.599              10.881              
N              -3.897              48.282              13.441              
C              -4.996              47.868              14.342              
C              -6.145              47.309              13.508              
O              -6.567              47.955              12.518              
C              -5.492              49.064              15.14               
C              -4.353              49.694              15.917              
C              -6.645              48.711              16.058              
C              -4.583              51.158              16.178              
H              -4.043              49.009              12.697              
H              -4.636              47.112              14.882              
H              -5.843              49.743              14.499              
H              -4.257              49.22               16.786              
H              -3.515              49.589              15.391              
H              -6.984              49.538              16.506              
H              -7.384              48.298              15.527              
H              -6.336              48.062              16.753              
H              -5.422              51.276              16.709              
H              -3.81               51.533              16.691              
H              -4.67               51.644              15.308              
N              -6.511              46.122              13.855              
C              -7.524              45.287              13.231              
C              -8.549              44.855              14.287              
O              -8.252              44.68               15.475              
C              -6.941              44.092              12.499              
C              -6.233              44.404              11.193              
C              -6.164              43.021              13.248              
H              -5.966              45.753              14.72               
H              -8.006              45.831              12.544              
H              -7.707              43.462              12.268              
H              -5.282              44.099              11.245              
H              -6.692              43.93               10.441              
H              -6.255              45.39               11.026              
H              -6.292              42.14               12.792              
H              -5.193              43.259              13.252              
H              -6.5                42.965              14.188              
N              -9.775              44.764              13.811              
C              -10.931             44.126              14.408              
C              -11.049             42.679              14.041              
O              -11.043             42.301              12.849              
C              -12.211             44.902              14.107              
H              -9.861              45.253              12.84               
H              -10.855             44.205              15.421              
H              -12.996             44.397              14.463              
H              -12.165             45.8                14.543              
H              -12.306             45.015              13.119              
N              -11.003             41.829              15.084              
C              -11.139             40.405              14.815              
C              -12.456             39.855              15.263              
O              -13.06              40.34               16.223              
C              -9.987              39.553              15.253              
S              -8.44               40.453              15.298              
H              -10.875             42.248              15.996              
H              -11.056             40.27               13.811              
H              -10.173             39.206              16.168              
H              -9.888              38.794              14.614              
N              -12.821             38.818              14.54               
C              -13.994             38.048              14.897              
C              -13.875             36.634              14.281              
O              -13.054             36.492              13.398              
C              -15.286             38.664              14.389              
C              -15.681             39.898              15.199              
C              -16.834             40.553              14.415              
O              -17.237             39.905              13.442              
O              -17.308             41.638              14.706              
H              -12.219             38.609              13.725              
H              -14.068             37.962              15.888              
H              -15.146             38.952              13.468              
H              -15.999             38.008              14.49               
H              -16.031             39.615              16.037              
H              -14.953             40.511              15.2                
N              -14.761             35.829              14.797              
C              -15.159             34.526              14.418              
C              -14.396             33.403              15.112              
O              -13.746             33.622              16.132              
H              -15.244             36.314              15.677              
H              -16.161             34.394              14.603              
H              -15.054             34.405              13.403              
N              -14.573             32.245              14.538              
C              -13.811             31.017              14.723              
C              -13.457             30.39               13.378              
O              -14.327             29.836              12.682              
C              -14.605             30.014              15.569              
C              -13.892             29.686              16.876              
O              -13.733             28.426              17.276              
N              -13.407             30.668              17.621              
H              -15.412             32.26               13.842              
H              -12.944             31.267              15.167              
H              -15.488             30.411              15.782              
H              -14.71              29.177              15.048              
H              -13.541             31.616              17.281              
H              -12.938             30.493              18.465              
N              -12.21              30.525              12.94               
C              -11.123             31.124              13.728              
C              -11.345             32.641              13.859              
O              -11.986             33.235              12.988              
C              -9.946              30.856              12.823              
C              -10.41              30.31               11.502              
C              -11.914             30.281              11.537              
H              -11.057             30.698              14.63               
H              -9.397              31.715              12.672              
H              -9.289              30.196              13.262              
H              -10.079             30.895              10.747              
H              -10.035             29.382              11.358              
H              -12.303             30.997              10.957              
H              -12.266             29.39               11.244              
N              -10.871             33.208              14.903              
C              -10.841             34.651              15.235              
C              -9.799              35.308              14.308              
O              -8.614              35.117              14.629              
C              -10.262             34.77               16.662              
C              -10.587             36.059              17.368              
C              -11.92              36.441              17.491              
C              -9.55               36.807              17.992              
C              -12.262             37.618              18.159              
C              -9.894              37.942              18.722              
C              -11.23              38.343              18.779              
O              -11.591             39.518              19.401              
H              -10.443             32.502              15.615              
H              -11.727             35.036              15.025              
H              -10.625             34.01               17.201              
H              -9.268              34.687              16.595              
H              -12.64              35.873              17.1                
H              -8.622              36.52               17.904              
H              -13.193             37.933              18.199              
H              -9.195              38.466              19.2                
H              -11.712             40.229              18.711              
N              -10.23              35.885              13.235              
C              -9.256              36.445              12.224              
C              -9.703              37.9                11.995              
O              -10.835             38.23               12.404              
C              -9.504              35.69               10.899              
C              -8.905              34.323              11.041              
C              -10.939             35.638              10.359              
H              -11.245             35.947              13.099              
H              -8.372              36.453              12.644              
H              -9.007              36.165              10.193              
H              -7.917              34.394              11.201              
H              -9.324              33.841              11.815              
H              -9.06               33.789              10.205              
H              -11.097             34.744              9.945               
H              -11.575             35.782              11.114              
H              -11.054             36.356              9.675               
N              -8.896              38.682              11.385              
C              -9.208              40.085              11.063              
C              -10.395             40.218              10.156              
O              -10.592             39.443              9.208               
C              -7.915              40.526              10.464              
C              -6.851              39.464              10.635              
C              -7.622              38.185              10.964              
H              -9.336              40.616              11.92               
H              -8.02               40.743              9.46                
H              -7.586              41.408              10.886              
H              -6.33               39.352              9.791               
H              -6.235              39.705              11.383              
H              -7.694              37.606              10.151              
H              -7.156              37.678              11.691              
N              -11.359             41.079              10.499              
C              -12.494             41.36               9.638               
C              -12.581             42.849              9.334               
O              -13.221             43.188              8.339               
C              -13.828             40.888              10.285              
C              -13.816             39.344              10.289              
C              -14.025             41.328              11.752              
H              -11.22              41.525              11.433              
H              -12.359             40.874              8.767               
H              -14.56              41.164              9.695               
H              -13.631             39.025              11.214              
H              -14.706             39.013              9.986               
H              -13.104             39.025              9.669               
H              -13.2               41.108              12.265              
H              -14.191             42.31               11.771              
H              -14.806             40.839              12.13               
N              -11.821             43.715              9.978               
C              -11.814             45.137              9.682               
C              -10.378             45.68               9.782               
O              -9.659              45.122              10.567              
C              -12.625             45.959              10.711              
C              -14.09              45.623              10.541              
H              -11.219             43.288              10.726              
H              -12.13              45.275              8.742               
H              -12.348             45.705              11.616              
H              -12.5               46.914              10.53               
N              -14.812             45.903              9.38                
C              -14.915             44.967              11.424              
C              -16.078             45.379              9.53                
N              -16.153             44.81               10.799              
H              -14.494             46.383              8.591               
H              -14.678             44.663              12.334              
H              -16.791             45.399              8.879               
N              -10.173             46.755              9.072               
C              -8.908              47.495              9.168               
C              -9.189              48.838              9.842               
O              -9.779              49.665              9.193               
C              -8.327              47.794              7.785               
C              -6.851              48.206              7.994               
C              -6.537              49.498              8.357               
C              -5.873              47.212              7.959               
C              -5.206              49.835              8.62                
C              -4.551              47.525              8.247               
C              -4.208              48.85               8.541               
H              -10.948             47.044              8.449               
H              -8.318              46.981              9.783               
H              -8.326              46.989              7.268               
H              -8.783              48.55               7.414               
H              -7.237              50.19               8.436               
H              -6.126              46.278              7.728               
H              -4.969              50.777              8.862               
H              -3.847              46.806              8.243               
H              -3.256              49.1                8.696               
N              -8.811              48.937              11.084              
C              -9.276              50.097              11.898              
C              -8.394              51.293              11.665              
O              -8.741              52.448              11.417              
C              -9.278              49.68               13.365              
C              -10.068             50.712              14.181              
O              -11.287             50.631              14.101              
O              -9.489              51.618              14.777              
H              -8.204              48.206              11.454              
H              -10.197             50.32               11.565              
H              -9.726              48.815              13.444              
H              -8.356              49.669              13.689              
N              -7.076              51.05               11.622              
C              -6.174              52.221              11.455              
C              -4.737              51.69               11.537              
O              -4.596              50.488              11.853              
C              -6.393              53.167              12.638              
H              -6.777              50.099              11.704              
H              -6.324              52.607              10.559              
H              -5.587              53.151              13.227              
H              -6.541              54.093              12.297              
H              -7.193              52.868              13.156              
N              -3.794              52.496              11.135              
C              -2.358              52.202              11.387              
C              -1.755              53.327              12.195              
O              -2.269              54.449              12.083              
C              -1.618              52.026              10.072              
O              -1.664              53.239              9.358               
H              -4.103              53.348              10.633              
H              -2.317              51.362              11.925              
H              -0.676              51.793              10.26               
H              -2.064              51.319              9.543               
H              -2.102              53.092              8.47                
N              -0.804              53.038              13.069              
C              -0.36               54.152              13.974              
C              1.13                54.321              13.866              
O              1.834               53.267              13.768              
C              -0.888              53.925              15.356              
C              -1.654              52.703              15.776              
C              -0.117              54.533              16.514              
O              1.702               55.506              13.781              
H              -0.434              52.114              13.086              
H              -0.81               54.983              13.651              
H              -1.516              54.745              15.59               
H              -1.038              51.913              15.831              
H              -2.073              52.852              16.676              
H              -2.378              52.505              15.11               
H              -0.322              54.026              17.352              
H              0.864               54.482              16.323              
H              -0.387              55.49               16.627              
H              6.08501             51.1302             8.70472             
H              -5.92353            38.8891             16.4412             
