257
1.xyz
C              55.798              25.863              4.027               
C              57.087              26.67               4.091               
O              57.05               27.896              4.14                
C              55.145              26.039              2.664               
C              55.945              25.522              1.488               
C              56.957              26.259              0.915               
C              55.6                24.335              0.878               
C              57.668              25.798              -0.189              
C              56.286              23.886              -0.251              
C              57.301              24.63               -0.76               
O              57.961              24.166              -1.878              
H              56.036              24.884              4.158               
H              54.262              25.56               2.672               
H              54.979              27.019              2.517               
H              57.197              27.161              1.299               
H              54.853              23.783              1.242               
H              58.437              26.335              -0.54               
H              56.019              23.016              -0.673              
H              58.731              24.769              -2.076              
N              58.231              26.005              4.145               
C              59.501              26.693              4.166               
C              59.682              27.627              5.326               
O              59.157              27.393              6.426               
H              58.133              24.97               4.17                
H              60.257              26                  4.168               
H              59.613              27.215              3.29                
N              60.433              28.695              5.084               
C              60.744              29.67               6.085               
C              59.791              30.843              6.191               
O              59.728              31.483              7.229               
H              60.775              28.754              4.091               
H              60.758              29.199              7.002               
N              59.063              31.136              5.124               
C              58.191              32.305              5.074               
C              56.701              32.077              4.854               
O              55.93               33.029              5.021               
C              58.743              33.302              4.027               
C              60.08               33.857              4.464               
C              61.262              33.231              4.125               
C              60.155              34.941              5.302               
C              62.458              33.685              4.564               
C              61.363              35.406              5.739               
C              62.521              34.763              5.385               
O              63.705              35.32               5.867               
H              59.164              30.467              4.33                
H              58.3                32.815              5.969               
H              58.862              32.819              3.18                
H              58.104              34.044              3.948               
H              61.224              32.41               3.532               
H              59.311              35.398              5.596               
H              63.315              33.219              4.278               
H              61.407              36.227              6.326               
H              64.471              34.784              5.526               
N              56.285              30.877              4.492               
C              54.861              30.62               4.184               
C              54.029              30.229              5.369               
O              54.164              29.109              5.902               
H              57.012              30.145              4.441               
H              54.481              31.48               3.785               
N              53.089              31.107              5.681               
C              52.112              30.863              6.709               
C              52.64               31.288              8.04                
O              51.913              31.23               9.044               
H              53.122              31.989              5.114               
H              51.266              31.373              6.499               
H              51.883              29.88               6.731               
N              53.879              31.761              8.065               
C              54.477              32.141              9.318               
C              55.965              32.49               9.195               
O              56.764              32.118              10.047              
C              54.299              30.957              10.245              
C              53.868              31.263              11.593              
C              52.609              31.579              12.013              
C              54.686              31.228              12.75               
N              52.61               31.77               13.372              
C              53.877              31.557              13.848              
C              56.04               30.97               12.97               
C              54.374              31.622              15.148              
C              56.527              31.036              14.247              
C              55.697              31.359              15.324              
H              54.345              31.826              7.149               
H              54.005              32.975              9.655               
H              53.62               30.333              9.833               
H              55.179              30.465              10.301              
H              51.809              31.66               11.425              
H              51.818              32.023              13.926              
H              56.644              30.739              12.205              
H              53.764              31.856              15.911              
H              57.495              30.85               14.414              
H              56.098              31.394              16.243              
N              56.209              33.408              8.257               
C              57.523              33.89               7.95                
C              58.278              34.408              9.152               
O              57.834              34.261              10.286              
H              55.338              33.742              7.766               
H              58.069              33.143              7.513               
H              57.461              34.635              7.252               
N              59.427              35.033              8.856               
C              60.305              35.592              9.866               
C              61.787              35.691              9.507               
O              62.364              36.773              9.479               
H              59.629              35.078              7.829               
H              59.967              36.533              10.122              
H              60.215              35.04               10.733              
N              62.479              34.551              9.302               
C              63.916              34.566              9.061               
C              64.366              33.46               8.155               
O              63.585              32.598              7.781               
C              64.71               34.448              10.39               
C              64.823              33.053              11.007              
C              65.077              33.126              12.518              
C              66.436              32.56               12.91               
N              66.858              33.015              14.257              
H              61.904              33.691              9.332               
H              64.161              35.461              8.642               
H              65.641              34.793              10.219              
H              64.268              35.055              11.062              
H              63.971              32.557              10.85               
H              65.581              32.567              10.578              
H              65.036              34.082              12.8                
H              64.367              32.604              12.985              
H              66.383              31.557              12.899              
H              67.116              32.854              12.232              
H              67.856              32.991              14.32               
H              66.537              33.95               14.41               
H              66.466              32.411              14.952              
N              65.624              33.499              7.797               
C              66.21               32.494              6.952               
C              66.227              32.781              5.459               
O              65.565              33.725              4.95                
H              66.161              34.316              8.175               
H              67.181              32.313              7.261               
H              65.724              31.594              7.106               
N              66.935              31.94               4.731               
C              66.979              32.047              3.291               
C              65.797              31.261              2.734               
O              65.634              30.093              3.039               
C              68.288              31.473              2.777               
O              69.375              32.302              3.227               
C              68.301              31.466              1.224               
H              67.445              31.213              5.271               
H              66.869              33.002              3.031               
H              68.426              30.541              3.167               
H              67.505              31.966              0.891               
H              69.138              31.905              0.905               
H              68.268              30.522              0.904               
H              69.139              32.739              4.1                 
N              64.927              31.884              1.938               
C              63.79               31.121              1.429               
C              64.241              29.829              0.782               
O              65.264              29.818              0.096               
C              63.108              32.097              0.461               
C              63.453              33.433              0.985               
C              64.887              33.304              1.546               
H              63.123              30.942              2.166               
H              63.459              31.965              -0.471              
H              62.116              31.948              0.457               
H              63.437              34.129              0.262               
H              62.83               33.714              1.72                
H              65.553              33.501              0.843               
H              65.007              33.897              2.33                
N              63.49               28.756              0.994               
C              63.889              27.44               0.522               
C              63.836              27.232              -0.982              
O              64.624              26.485              -1.52               
C              63.067              26.337              1.177               
C              63.134              26.327              2.705               
C              64.567              26.395              3.228               
C              65.449              25.31               2.717               
N              66.812              25.389              3.321               
H              62.61               28.936              1.517               
H              64.851              27.259              0.839               
H              62.112              26.454              0.911               
H              63.401              25.455              0.847               
H              62.625              27.116              3.057               
H              62.706              25.485              3.043               
H              64.952              27.289              2.964               
H              64.534              26.351              4.234               
H              65.052              24.415              2.94                
H              65.537              25.384              1.719               
H              67.189              26.301              3.165               
H              66.748              25.215              4.302               
H              67.401              24.704              2.895               
N              62.892              27.864              -1.657              
C              62.658              27.694              -3.077              
C              61.805              28.853              -3.602              
O              61.539              29.812              -2.861              
C              62.003              26.341              -3.387              
C              60.639              26.186              -2.783              
O              60.132              27.135              -2.161              
O              60                  25.121              -2.97               
H              62.31               28.517              -1.062              
H              63.544              27.755              -3.541              
H              61.934              26.261              -4.379              
H              62.603              25.628              -3.032              
N              61.39               28.756              -4.862              
C              60.614              29.845              -5.457              
C              59.276              30.07               -4.724              
O              58.879              31.209              -4.55               
C              60.41               29.583              -6.908              
H              61.648              27.896              -5.354              
H              61.151              30.698              -5.399              
H              60.45               30.442              -7.429              
H              61.123              28.965              -7.257              
H              59.513              29.156              -7.065              
N              58.601              29.003              -4.314              
C              57.35               29.138              -3.604              
C              57.585              29.873              -2.33               
O              56.831              30.769              -1.98               
C              56.759              27.75               -3.331              
O              56.197              27.239              -4.542              
C              55.616              27.836              -2.364              
H              59.042              28.093              -4.544              
H              56.715              29.667              -4.176              
H              57.507              27.124              -3.038              
H              54.744              27.926              -2.858              
H              55.576              27.008              -1.794              
H              55.726              28.634              -1.761              
H              56.369              26.251              -4.619              
N              58.611              29.486              -1.591              
C              58.917              30.159              -0.332              
C              59.245              31.687              -0.59               
O              58.886              32.592              0.181               
C              60.095              29.449              0.371               
C              60.188              29.726              1.862               
O              59.227              30.265              2.435               
O              61.192              29.361              2.48                
H              59.158              28.696              -1.966              
H              58.093              30.153              0.233               
H              59.981              28.467              0.232               
H              60.937              29.756              -0.067              
N              59.891              31.948              -1.72               
C              60.188              33.322              -2.079              
C              61.161              33.455              -3.25               
C              62.586              33.031              -2.914              
C              63.595              33.414              -3.974              
N              63.463              32.606              -5.162              
C              64.015              31.408              -5.354              
N              64.668              30.813              -4.38               
N              63.834              30.778              -6.495              
H              60.147              31.13               -2.286              
H              60.663              33.768              -1.317              
H              60.837              32.88               -3.993              
H              61.183              34.408              -3.533              
H              62.861              33.46               -2.047              
H              62.614              32.032              -2.8                
H              63.451              34.375              -4.204              
H              64.509              33.295              -3.586              
H              62.9                32.976              -5.927              
H              64.749              31.229              -3.475              
H              65.1                29.913              -4.541              
H              63.265              31.189              -7.214              
H              64.26               29.886              -6.656              
H              59.2516             33.8678             -2.27002            
H              54.7315             29.833              3.48005             
H              55.1029             26.1389             4.77309             
H              61.733              30.0487             5.93506             
