321
6.xyz
C              -9.197              -32.281             23.032              
O              -8.187              -32.348             22.333              
N              -10.238             -31.521             22.718              
C              -10.251             -30.751             21.477              
C              -11.006             -29.447             21.604              
O              -11.673             -29.195             22.605              
C              -10.903             -31.567             20.356              
C              -10.076             -32.75              19.887              
C              -10.712             -33.446             18.697              
C              -11.952             -34.219             19.106              
N              -12.311             -35.229             18.061              
H              -11.01              -31.521             23.402              
H              -9.291              -30.55              21.213              
H              -11.78              -31.908             20.69               
H              -11.054             -30.958             19.578              
H              -9.164              -32.428             19.624              
H              -9.988              -33.407             20.638              
H              -10.972             -32.761             18.024              
H              -10.055             -34.083             18.306              
H              -11.776             -34.691             19.967              
H              -12.713             -33.584             19.219              
H              -11.76              -36.05              18.197              
H              -13.28              -35.454             18.143              
H              -12.128             -34.845             17.158              
N              -10.876             -28.622             20.573              
C              -11.578             -27.355             20.487              
C              -13.024             -27.723             20.174              
O              -13.274             -28.693             19.458              
C              -11.028             -26.53              19.325              
C              -9.596              -26.135             19.486              
H              -10.223             -28.965             19.828              
H              -11.554             -26.913             21.367              
H              -11.116             -27.063             18.474              
H              -11.579             -25.692             19.23               
N              -9.197              -25.091             20.295              
C              -8.465              -26.66              18.962              
C              -7.88               -24.993             20.262              
N              -7.412              -25.933             19.462              
H              -9.81               -24.504             20.822              
H              -8.404              -27.429             18.331              
H              -7.333              -24.323             20.756              
N              -13.975             -26.973             20.721              
C              -15.377             -27.231             20.434              
C              -15.935             -26.05              19.64               
O              -15.467             -24.919             19.763              
C              -16.226             -27.42              21.732              
C              -16.191             -26.156             22.597              
C              -15.695             -28.604             22.508              
C              -17.186             -26.179             23.766              
H              -13.641             -26.221             21.343              
H              -15.403             -28.018             19.824              
H              -17.165             -27.581             21.452              
H              -15.273             -26.046             22.966              
H              -16.406             -25.372             22.021              
H              -16.256             -28.754             23.322              
H              -15.722             -29.424             21.935              
H              -14.751             -28.43              22.787              
H              -16.972             -26.953             24.353              
H              -17.101             -25.328             24.275              
H              -18.107             -26.27              23.4                
N              -16.934             -26.331             18.818              
C              -17.578             -25.313             18.014              
C              -19.075             -25.445             18.29               
O              -19.672             -26.496             18.056              
C              -17.297             -25.55              16.512              
C              -15.788             -25.517             16.256              
C              -18.009             -24.506             15.677              
C              -15.402             -25.876             14.841              
H              -17.212             -27.337             18.801              
H              -17.302             -24.439             18.385              
H              -17.63              -26.454             16.279              
H              -15.454             -24.599             16.463              
H              -15.352             -26.163             16.883              
H              -17.846             -24.682             14.706              
H              -18.992             -24.543             15.857              
H              -17.665             -23.596             15.909              
H              -15.825             -25.23              14.207              
H              -14.408             -25.834             14.746              
H              -15.718             -26.801             14.634              
N              -19.672             -24.379             18.81               
C              -21.089             -24.374             19.121              
C              -21.761             -23.181             18.454              
O              -21.088             -22.203             18.099              
C              -21.311             -24.255             20.633              
C              -20.652             -25.444             21.359              
C              -20.733             -22.937             21.128              
H              -19.044             -23.565             18.971              
H              -21.499             -25.209             18.745              
H              -22.285             -24.323             20.81               
H              -19.979             -25.096             22.007              
H              -21.355             -25.959             21.843              
H              -20.206             -26.028             20.686              
H              -20.918             -22.842             22.106              
H              -19.746             -22.929             20.97               
H              -21.16              -22.182             20.63               
N              -23.078             -23.281             18.267              
C              -23.864             -22.196             17.703              
C              -24.483             -21.48              18.89               
O              -24.95              -22.123             19.839              
C              -24.976             -22.733             16.779              
H              -23.485             -24.195             18.558              
H              -23.263             -21.571             17.229              
H              -25.79              -22.169             16.89               
H              -24.66              -22.692             15.835              
H              -25.179             -23.676             17.03               
N              -24.496             -20.156             18.842              
C              -25.059             -19.374             19.926              
C              -26.232             -18.569             19.387              
O              -26.255             -18.187             18.213              
C              -24                 -18.429             20.494              
S              -22.469             -19.272             21.011              
H              -24.081             -19.743             17.987              
H              -25.405             -19.999             20.624              
H              -23.763             -17.765             19.794              
H              -24.382             -17.972             21.29               
N              -27.189             -18.29              20.255              
C              -28.357             -17.547             19.843              
C              -29.018             -17.048             21.104              
O              -28.704             -17.526             22.196              
C              -29.302             -18.488             19.101              
C              -30.24              -17.832             18.131              
C              -31.156             -18.853             17.484              
O              -30.651             -19.922             17.075              
O              -32.376             -18.586             17.386              
H              -27.031             -18.638             21.215              
H              -28.091             -16.778             19.274              
H              -28.741             -19.133             18.596              
H              -29.847             -18.959             19.784              
H              -30.805             -17.198             18.616              
H              -29.719             -17.414             17.417              
N              -29.918             -16.082             20.961              
C              -30.621             -15.566             22.12               
C              -30.037             -14.301             22.703              
O              -29.028             -13.767             22.229              
H              -30.063             -15.75              19.998              
H              -31.601             -15.398             21.869              
H              -30.645             -16.29              22.846              
N              -30.698             -13.803             23.735              
C              -30.262             -12.594             24.418              
C              -30.624             -12.781             25.879              
O              -31.773             -12.561             26.267              
C              -30.977             -11.379             23.818              
C              -30.611             -10.079             24.506              
H              -31.545             -14.342             24.013              
H              -29.274             -12.562             24.362              
H              -30.726             -11.312             22.855              
H              -31.961             -11.52              23.905              
O              -29.514             -9.93               25.068              
N              -31.52              -9.119              24.45               
H              -32.391             -9.27               23.981              
H              -31.339             -8.23               24.881              
N              -29.649             -13.178             26.718              
C              -28.234             -13.473             26.473              
C              -27.873             -14.459             25.37               
O              -28.517             -15.493             25.185              
C              -27.755             -13.957             27.829              
C              -28.587             -13.176             28.757              
C              -29.943             -13.334             28.15               
H              -27.712             -12.581             26.334              
H              -27.914             -14.938             27.931              
H              -26.784             -13.761             27.953              
H              -28.56              -13.558             29.674              
H              -28.311             -12.221             28.771              
H              -30.327             -14.234             28.332              
H              -30.571             -12.625             28.458              
N              -26.797             -14.127             24.67               
C              -26.261             -14.917             23.568              
C              -25.557             -16.158             24.16               
O              -24.402             -16.079             24.604              
C              -25.279             -14.033             22.796              
C              -25.042             -14.415             21.36               
C              -26.096             -14.472             20.439              
C              -23.756             -14.68              20.911              
C              -25.856             -14.782             19.103              
C              -23.505             -14.989             19.592              
C              -24.553             -15.036             18.693              
O              -24.268             -15.328             17.396              
H              -26.35              -13.222             24.984              
H              -27.016             -15.237             23.005              
H              -25.628             -13.09              22.818              
H              -24.396             -14.057             23.277              
H              -27.027             -14.289             20.744              
H              -22.994             -14.644             21.563              
H              -26.607             -14.82              18.451              
H              -22.572             -15.179             19.284              
H              -24.46              -16.294             17.219              
N              -26.26              -17.295             24.154              
C              -25.733             -18.537             24.725              
C              -25.712             -19.72              23.737              
O              -26.302             -19.647             22.669              
C              -26.55              -18.931             26.001              
C              -26.189             -18.005             27.167              
C              -28.043             -18.809             25.728              
H              -27.199             -17.221             23.715              
H              -24.774             -18.367             25.017              
H              -26.271             -19.846             26.257              
H              -25.608             -18.498             27.811              
H              -25.701             -17.208             26.815              
H              -27.026             -17.712             27.625              
H              -28.551             -19.085             26.544              
H              -28.26              -17.86              25.501              
H              -28.288             -19.403             24.962              
N              -25.017             -20.822             24.089              
C              -24.941             -21.997             23.21               
C              -26.263             -22.749             23.181              
O              -26.863             -23.016             24.238              
C              -23.84              -22.855             23.844              
C              -23.06              -21.88              24.714              
C              -24.133             -20.989             25.256              
H              -24.66              -21.726             22.281              
H              -24.231             -23.583             24.405              
H              -23.246             -23.249             23.146              
H              -22.592             -22.373             25.437              
H              -22.411             -21.376             24.157              
H              -24.626             -21.419             26.008              
H              -23.769             -20.107             25.548              
N              -26.699             -23.116             21.98               
C              -27.953             -23.839             21.825              
C              -27.803             -25.035             20.911              
O              -28.751             -25.778             20.698              
C              -29.058             -22.94              21.252              
C              -29.339             -21.806             22.203              
C              -28.655             -22.418             19.891              
H              -26.086             -22.85              21.19               
H              -28.236             -24.173             22.737              
H              -29.887             -23.486             21.188              
H              -28.611             -21.747             22.889              
H              -29.383             -20.94              21.699              
H              -30.214             -21.959             22.668              
H              -28.954             -21.467             19.795              
H              -27.659             -22.465             19.796              
H              -29.085             -22.975             19.178              
N              -26.606             -25.221             20.37               
C              -26.357             -26.331             19.469              
C              -24.867             -26.651             19.433              
O              -24.028             -25.759             19.374              
C              -26.891             -25.973             18.068              
C              -26.272             -26.755             16.953              
H              -25.889             -24.525             20.64               
H              -26.843             -27.14              19.812              
H              -27.886             -26.129             18.054              
H              -26.724             -24.993             17.902              
N              -26.686             -28.025             16.607              
C              -25.264             -26.442             16.1                
C              -25.959             -28.461             15.591              
N              -25.09              -27.519             15.262              
H              -24.746             -25.592             16.083              
H              -26.049             -29.349             15.149              
H              -24.418             -27.58              14.524              
N              -24.538             -27.931             19.487              
C              -23.141             -28.354             19.442              
C              -22.865             -28.669             17.974              
O              -23.484             -29.559             17.396              
C              -22.933             -29.585             20.34               
C              -21.494             -30.016             20.466              
C              -20.866             -30.709             19.433              
C              -20.752             -29.683             21.603              
C              -19.511             -31.063             19.529              
C              -19.401             -30.029             21.706              
C              -18.782             -30.72              20.667              
H              -25.333             -28.59              19.562              
H              -22.591             -27.569             19.673              
H              -23.265             -29.358             21.243              
H              -23.443             -30.334             19.946              
H              -21.373             -30.958             18.618              
H              -21.192             -29.191             22.352              
H              -19.078             -31.563             18.775              
H              -18.883             -29.776             22.535              
H              -17.819             -30.971             20.733              
N              -21.93              -27.941             17.368              
C              -21.643             -28.133             15.949              
C              -20.544             -29.126             15.6                
O              -20.729             -29.965             14.717              
C              -21.339             -26.776             15.297              
C              -21.72              -26.741             13.817              
O              -22.9               -27.02              13.499              
O              -20.844             -26.437             12.982              
H              -21.446             -27.257             17.966              
H              -22.509             -28.484             15.517              
H              -21.861             -26.082             15.774              
H              -20.367             -26.607             15.377              
N              -19.409             -29.055             16.296              
C              -18.309             -29.954             15.992              
C              -17.186             -29.802             16.987              
O              -17.254             -28.976             17.876              
C              -17.782             -29.653             14.585              
H              -19.388             -28.338             17.033              
H              -18.65              -30.905             16.027              
H              -18.492             -29.864             13.916              
H              -17.539             -28.687             14.524              
H              -16.976             -30.214             14.408              
N              -16.163             -30.631             16.84               
C              -14.979             -30.549             17.676              
C              -13.812             -30.589             16.69               
O              -13.899             -31.244             15.649              
C              -14.907             -31.724             18.647              
O              -14.871             -32.952             17.954              
H              -16.282             -31.337             16.082              
H              -14.968             -29.673             18.121              
H              -14.081             -31.635             19.198              
H              -15.712             -31.704             19.234              
H              -14.702             -33.698             18.599              
N              -12.735             -29.877             16.997              
C              -11.575             -29.846             16.109              
C              -10.269             -29.784             16.887              
O              -10.285             -29.223             18.002              
C              -11.637             -28.629             15.173              
C              -12.85              -28.733             14.267              
C              -11.705             -27.354             15.992              
O              -9.245              -30.279             16.368              
H              -12.786             -29.362             17.891              
H              -11.575             -30.698             15.566              
H              -10.833             -28.654             14.589              
H              -12.559             -28.703             13.31               
H              -13.327             -29.596             14.441              
H              -13.471             -27.97              14.448              
H              -12.07              -27.561             16.9                
H              -10.787             -26.966             16.081              
H              -12.303             -26.696             15.534              
H              -22.3557            -18.9586            22.2771             
H              -9.2654             -32.8387            23.9324             
