234
5.xyz
C              -22.345             -36.762             21.619              
O              -21.719             -37.695             22.109              
N              -21.992             -35.493             21.788              
C              -20.813             -35.128             22.561              
C              -21.129             -34.49              23.908              
O              -22.013             -33.642             24.016              
C              -19.942             -34.16              21.76               
O              -19.623             -34.757             20.499              
C              -18.649             -33.842             22.518              
H              -22.616             -34.801             21.331              
H              -20.268             -35.973             22.731              
H              -20.47              -33.306             21.582              
H              -18.808             -33.928             23.502              
H              -17.932             -34.482             22.24               
H              -18.359             -32.907             22.309              
H              -18.768             -35.283             20.566              
N              -20.401             -34.903             24.936              
C              -20.583             -34.344             26.272              
C              -19.321             -33.562             26.632              
O              -18.203             -34.036             26.416              
C              -20.835             -35.457             27.293              
C              -22.202             -36.083             27.172              
C              -23.339             -35.38              27.562              
C              -22.354             -37.36              26.651              
C              -24.612             -35.946             27.432              
C              -23.631             -37.934             26.518              
C              -24.754             -37.224             26.909              
H              -19.706             -35.641             24.715              
H              -21.324             -33.682             26.215              
H              -20.163             -36.163             27.144              
H              -20.759             -35.064             28.195              
H              -23.253             -34.463             27.937              
H              -21.555             -37.883             26.365              
H              -25.417             -35.418             27.722              
H              -23.713             -38.866             26.137              
H              -25.664             -37.625             26.817              
N              -19.517             -32.369             27.185              
C              -18.424             -31.477             27.561              
C              -18.184             -31.479             29.078              
O              -19.105             -31.224             29.865              
C              -18.73              -30.036             27.095              
C              -17.512             -29.148             27.321              
C              -19.145             -30.044             25.61               
H              -20.525             -32.123             27.328              
H              -17.58              -31.807             27.118              
H              -19.458             -29.683             27.668              
H              -17.797             -28.19              27.34               
H              -17.084             -29.386             28.192              
H              -16.857             -29.286             26.579              
H              -20.104             -29.78              25.544              
H              -18.574             -29.394             25.115              
H              -19.015             -30.963             25.246              
N              -16.941             -31.749             29.478              
C              -16.588             -31.813             30.898              
C              -15.853             -30.565             31.379              
O              -14.691             -30.622             31.802              
C              -15.75              -33.065             31.148              
C              -16.413             -34.311             30.652              
H              -16.26              -31.906             28.712              
H              -17.444             -31.902             31.433              
H              -14.868             -32.968             30.682              
H              -15.592             -33.162             32.133              
N              -17.608             -34.767             31.167              
C              -16.108             -35.134             29.62               
C              -18.015             -35.814             30.47               
N              -17.124             -36.055             29.525              
H              -15.301             -35.084             29.04               
H              -18.849             -36.333             30.63               
H              -17.18              -36.791             28.846              
N              -16.566             -29.445             31.302              
C              -16.065             -28.139             31.699              
C              -17.221             -27.443             32.396              
O              -18.361             -27.902             32.315              
C              -15.666             -27.327             30.464              
C              -14.658             -27.991             29.542              
C              -13.261             -28.086             30.16               
O              -12.95              -27.29              31.069              
O              -12.472             -28.939             29.727              
H              -17.539             -29.588             30.923              
H              -15.308             -28.241             32.325              
H              -16.488             -27.161             29.938              
H              -15.268             -26.478             30.78               
H              -14.958             -28.908             29.36               
H              -14.578             -27.453             28.725              
N              -16.941             -26.34              33.081              
C              -18.016             -25.611             33.756              
C              -18.895             -24.93              32.701              
O              -18.443             -24.651             31.585              
C              -17.438             -24.552             34.7                
O              -16.854             -23.494             33.957              
H              -15.956             -26.058             33.095              
H              -18.582             -26.271             34.245              
H              -18.171             -24.189             35.261              
H              -16.74              -24.975             35.265              
H              -16.713             -22.706             34.555              
N              -20.152             -24.673             33.056              
C              -21.08              -24.024             32.149              
C              -20.554             -22.647             31.741              
O              -20.701             -22.245             30.591              
C              -22.46              -23.879             32.804              
C              -23.553             -23.192             31.975              
C              -23.746             -23.913             30.652              
C              -24.85              -23.169             32.767              
H              -20.401             -24.973             34.019              
H              -21.17              -24.583             31.319              
H              -22.789             -24.795             33.026              
H              -22.346             -23.349             33.641              
H              -23.281             -22.246             31.804              
H              -24.016             -24.862             30.823              
H              -24.461             -23.456             30.121              
H              -22.889             -23.9               30.135              
H              -24.713             -22.664             33.621              
H              -25.565             -22.721             32.228              
H              -25.131             -24.106             32.977              
N              -19.93              -21.928             32.676              
C              -19.397             -20.599             32.355              
C              -18.321             -20.665             31.288              
O              -18.271             -19.808             30.398              
C              -18.845             -19.916             33.61               
H              -19.859             -22.368             33.601              
H              -20.157             -20.024             32.017              
H              -19.421             -19.134             33.84               
H              -18.845             -20.567             34.366              
H              -17.913             -19.606             33.433              
N              -17.461             -21.678             31.36               
C              -16.398             -21.8               30.363              
C              -16.96              -22.125             28.975              
O              -16.39              -21.746             27.947              
C              -15.383             -22.875             30.765              
C              -14.422             -22.396             31.843              
O              -14.358             -21.173             32.09               
O              -13.725             -23.246             32.429              
H              -17.603             -22.331             32.136              
H              -15.949             -20.9               30.293              
H              -15.885             -23.657             31.111              
H              -14.86              -23.121             29.959              
N              -18.079             -22.83              28.941              
C              -18.675             -23.171             27.662              
C              -19.443             -21.969             27.121              
O              -19.36              -21.67              25.942              
C              -19.615             -24.384             27.782              
C              -20.37              -24.572             26.481              
C              -18.791             -25.639             28.106              
H              -18.467             -23.1               29.853              
H              -17.94              -23.382             27.015              
H              -20.286             -24.177             28.483              
H              -19.722             -24.635             25.721              
H              -20.911             -25.413             26.524              
H              -20.981             -23.794             26.33               
H              -18.286             -25.484             28.952              
H              -19.411             -26.413             28.214              
H              -18.157             -25.811             27.356              
N              -20.173             -21.271             27.989              
C              -20.926             -20.092             27.568              
C              -19.963             -19.034             27.021              
O              -20.28              -18.321             26.062              
C              -21.712             -19.524             28.754              
C              -22.893             -20.405             29.174              
C              -23.599             -19.914             30.422              
H              -20.16              -21.627             28.96               
H              -21.536             -20.362             26.822              
H              -21.1               -19.438             29.536              
H              -22.072             -18.627             28.504              
H              -23.552             -20.429             28.42               
H              -22.551             -21.332             29.341              
O              -24.768             -20.231             30.65               
N              -22.888             -19.152             31.251              
H              -23.299             -18.777             32.098              
H              -21.916             -18.952             31.018              
N              -18.773             -18.952             27.611              
C              -17.773             -17.974             27.171              
C              -17.348             -18.178             25.712              
O              -16.785             -17.279             25.092              
C              -16.534             -18.039             28.09               
H              -18.618             -19.619             28.385              
H              -18.168             -17.046             27.261              
H              -16.832             -18.226             29.022              
H              -15.934             -18.767             27.772              
H              -16.058             -17.165             28.053              
N              -17.606             -19.366             25.168              
C              -17.229             -19.65              23.798              
C              -17.983             -18.748             22.816              
O              -17.489             -18.464             21.731              
C              -17.487             -21.134             23.439              
C              -17.225             -21.364             21.964              
C              -16.565             -22.039             24.258              
H              -18.082             -20.039             25.791              
H              -16.244             -19.46              23.691              
H              -18.45              -21.316             23.6                
H              -16.333             -21.802             21.844              
H              -17.937             -21.956             21.583              
H              -17.231             -20.488             21.48               
H              -16.068             -21.483             24.922              
H              -17.117             -22.723             24.733              
H              -15.92              -22.49              23.643              
N              -19.172             -18.294             23.198              
C              -19.965             -17.43              22.329              
C              -19.299             -16.079             22.083              
O              -19.733             -15.318             21.217              
C              -21.353             -17.229             22.911              
S              -22.294             -18.788             22.966              
H              -19.478             -18.598             24.139              
H              -20.071             -17.893             21.435              
H              -21.267             -16.895             23.835              
H              -21.85              -16.596             22.34               
N              -18.252             -15.772             22.844              
C              -17.56              -14.514             22.63               
C              -16.145             -14.792             22.107              
O              -15.278             -13.933             22.145              
C              -17.531             -13.701             23.928              
O              -16.706             -14.305             24.902              
H              -17.996             -16.466             23.552              
H              -18.047             -13.999             21.924              
H              -17.183             -12.788             23.725              
H              -18.462             -13.635             24.283              
H              -16.83              -15.297             24.879              
N              -15.919             -16.001             21.594              
C              -14.605             -16.349             21.079              
C              -14.122             -17.652             21.741              
C              -13.685             -17.39              23.201              
C              -13.525             -18.64              24.049              
H              -16.729             -16.638             21.597              
H              -13.945             -15.644             21.396              
H              -14.862             -18.299             21.759              
H              -13.341             -17.994             21.249              
H              -12.807             -16.9               23.178              
H              -14.374             -16.794             23.628              
O              -13.111             -19.677             23.569              
N              -13.841             -18.526             25.332              
H              -13.773             -19.324             25.96               
H              -14.155             -17.623             25.684              
H              -14.554             -16.3727            19.9767             
H              -23.2154            -36.9435            21.0278             
H              -22.4073            -19.1014            21.6999             
