218
2.xyz
C              43.003              8.132               -0.379              
C              44.398              8.324               0.208               
O              45.33               8.651               -0.523              
C              42.201              9.433               -0.3                
C              41.878              10.001              -1.683              
C              41.203              8.949               -2.562              
C              41.286              9.294               -4.044              
N              40.537              10.528              -4.403              
H              43.098              7.98                -1.39               
H              41.348              9.248               0.166               
H              42.738              10.103              0.193               
H              41.262              10.777              -1.579              
H              42.724              10.292              -2.12               
H              41.654              8.072               -2.414              
H              40.242              8.885               -2.304              
H              42.257              9.412               -4.294              
H              40.92               8.519               -4.578              
H              40.41               10.562              -5.394              
H              39.645              10.518              -3.951              
H              41.055              11.329              -4.104              
N              44.55               8.128               1.515               
C              45.86               8.266               2.148               
C              46.56               6.913               2.145               
O              47.789              6.825               2.087               
C              45.713              8.776               3.583               
C              45.393              10.255              3.643               
O              44.41               10.678              2.999               
O              46.125              10.994              4.333               
H              43.689              7.878               2.026               
H              46.403              8.88                1.576               
H              44.975              8.27                4.014               
H              46.57               8.614               4.056               
N              45.754              5.86                2.208               
C              46.238              4.486               2.192               
C              45.004              3.606               2.058               
O              43.9                4.108               1.862               
C              46.966              4.138               3.494               
C              46.054              4.024               4.705               
C              46.706              3.222               5.821               
N              45.8                3.041               6.952               
C              46.034              2.231               7.98                
N              47.151              1.517               8.026               
N              45.147              2.132               8.963               
H              44.735              6.103               2.27                
H              46.814              4.353               1.4                 
H              47.425              3.263               3.369               
H              47.635              4.853               3.677               
H              45.85               4.934               5.055               
H              45.211              3.562               4.444               
H              46.959              2.332               5.455               
H              47.516              3.715               6.123               
H              44.939              3.565               6.953               
H              47.839              1.588               7.309               
H              47.309              0.892               8.8                 
H              44.311              2.686               8.933               
H              45.309              1.512               9.727               
N              45.186              2.296               2.161               
C              44.053              1.389               2.072               
C              43.598              1.056               3.487               
O              44.342              0.432               4.244               
C              44.443              0.09                1.368               
S              45.15               0.242               -0.304              
H              46.16               1.993               2.303               
H              43.306              1.858               1.608               
H              45.116              -0.389              1.947               
H              43.619              -0.489              1.304               
N              42.397              1.482               3.866               
C              41.922              1.149               5.202               
C              41.72               -0.36               5.163               
O              40.935              -0.866              4.368               
C              40.604              1.856               5.534               
C              40.202              1.663               6.994               
C              39.016              2.512               7.41                
C              38.806              2.407               8.921               
N              37.594              3.119               9.404               
H              41.875              2.027               3.181               
H              42.62               1.361               5.859               
H              40.718              2.824               5.367               
H              39.893              1.475               4.961               
H              39.975              0.691               7.14                
H              40.99               1.893               7.579               
H              39.197              3.457               7.185               
H              38.203              2.181               6.958               
H              38.737              1.43                9.168               
H              39.62               2.786               9.385               
H              37.371              2.807               10.327              
H              37.77               4.103               9.417               
H              36.828              2.925               8.792               
N              42.442              -1.095              6.017               
C              42.413              -2.558              6.141               
C              41.037              -3.222              6.227               
O              40.684              -4.054              5.387               
C              43.239              -2.808              7.398               
C              44.207              -1.684              7.392               
C              43.331              -0.513              7.037               
H              42.963              -2.986              5.377               
H              42.66               -2.783              8.212               
H              43.706              -3.689              7.346               
H              44.617              -1.561              8.289               
H              44.91               -1.823              6.704               
H              42.806              -0.198              7.821               
H              43.861              0.238               6.654               
N              40.278              -2.858              7.256               
H              40.709              -2.137              7.877               
C              44.5                -8.519              -0.128              
O              45.085              -7.48               0.182               
N              45.139              -9.64               -0.444              
C              46.59               -9.694              -0.432              
C              47.233              -8.98               -1.606              
O              48.233              -8.28               -1.441              
H              44.532              -10.439             -0.689              
H              46.934              -9.285              0.436               
H              46.89               -10.668             -0.429              
N              46.666              -9.153              -2.795              
C              47.205              -8.515              -3.99               
C              46.965              -7.008              -3.956              
O              47.494              -6.267              -4.786              
C              46.56               -9.108              -5.246              
O              45.182              -8.781              -5.317              
H              45.83               -9.764              -2.798              
H              48.199              -8.668              -4.006              
H              47.022              -8.741              -6.048              
H              46.657              -10.099             -5.218              
H              45.073              -7.789              -5.273              
N              46.161              -6.561              -2.995              
C              45.848              -5.142              -2.853              
C              47.111              -4.316              -2.641              
O              47.9                -4.594              -1.74               
C              44.894              -4.926              -1.676              
O              44.661              -3.544              -1.455              
H              45.783              -7.296              -2.366              
H              45.415              -4.831              -3.708              
H              44.028              -5.372              -1.879              
H              45.301              -5.32               -0.857              
H              44.692              -3.354              -0.475              
N              47.295              -3.298              -3.475              
C              48.461              -2.429              -3.375              
C              48.096              -0.977              -3.642              
O              47.683              -0.621              -4.745              
C              49.547              -2.876              -4.359              
C              50.164              -4.231              -4.034              
C              50.883              -4.201              -2.694              
C              51.464              -5.559              -2.341              
N              52.116              -5.551              -1                  
H              46.551              -3.179              -4.189              
H              48.842              -2.501              -2.443              
H              49.141              -2.927              -5.269              
H              50.274              -2.191              -4.353              
H              49.44               -4.918              -3.997              
H              50.819              -4.471              -4.748              
H              51.626              -3.54               -2.743              
H              50.234              -3.939              -1.986              
H              50.727              -6.24               -2.343              
H              52.144              -5.814              -3.034              
H              52.434              -4.627              -0.793              
H              51.455              -5.841              -0.31               
H              52.893              -6.18               -1.007              
N              48.248              -0.147              -2.618              
C              47.949              1.276               -2.719              
C              48.625              1.828               -3.973              
O              49.758              1.462               -4.28               
C              48.48               1.988               -1.473              
C              48.205              3.471               -1.425              
C              46.903              3.959               -1.303              
C              49.25               4.391               -1.484              
C              46.652              5.326               -1.238              
C              49.011              5.756               -1.42               
C              47.713              6.218               -1.297              
O              47.48               7.572               -1.238              
H              48.596              -0.596              -1.743              
H              46.963              1.387               -2.824              
H              48.059              1.565               -0.669              
H              49.472              1.853               -1.436              
H              46.137              3.317               -1.262              
H              50.189              4.06                -1.573              
H              45.715              5.662               -1.148              
H              49.773              6.402               -1.463              
H              46.552              7.731               -0.905              
N              47.944              2.721               -4.713              
C              46.602              3.269               -4.494              
C              45.468              2.379               -5.002              
O              44.295              2.671               -4.774              
C              46.659              4.592               -5.244              
C              47.463              4.219               -6.442              
C              48.603              3.416               -5.835              
H              46.465              3.488               -3.506              
H              45.749              4.893               -5.503              
H              47.119              5.287               -4.706              
H              46.935              3.657               -7.066              
H              47.811              5.025               -6.903              
H              48.969              2.762               -6.489              
H              49.327              4.014               -5.504              
N              45.813              1.304               -5.699              
C              44.802              0.391               -6.225              
C              44.327              -0.566              -5.136              
O              44.571              -1.77               -5.197              
C              45.369              -0.398              -7.405              
C              45.788              0.499               -8.551              
H              46.83               1.172               -5.834              
H              44.01               0.947               -6.493              
H              46.165              -0.906              -7.09               
H              44.667              -1.025              -7.731              
O              46.581              1.425               -8.37               
N              45.257              0.232               -9.738              
H              44.61               -0.527              -9.835              
H              45.499              0.786               -10.533             
N              43.644              -0.018              -4.138              
C              43.144              -0.818              -3.034              
C              42.598              0.095               -1.938              
S              43.777              1.34                -1.316              
H              43.503              1.007               -4.216              
H              43.907              -1.364              -2.664              
H              41.802              0.58                -2.3                
H              42.318              -0.475              -1.165              
H              42.3634             -1.51242            -3.36649            
H              43.4356             -8.56228            -0.160107           
H              42.4418             7.33059             0.0293469           
H              39.3586             -3.24935            7.42045             
