320
5.xyz
C              38.953              -3.422              7.493               
C              37.939              -2.314              7.754               
O              38.24               -1.34               8.44                
C              38.968              -4.348              8.735               
C              37.602              -4.983              8.938               
C              40.051              -5.411              8.586               
H              38.668              -3.914              6.664               
H              39.149              -3.779              9.529               
H              37.71               -5.962              9.112               
H              37.147              -4.555              9.719               
H              37.046              -4.851              8.117               
H              39.98               -5.828              7.68                
H              40.948              -4.983              8.691               
H              39.925              -6.109              9.29                
N              36.739              -2.459              7.203               
C              35.696              -1.462              7.418               
C              34.329              -2.07               7.175               
O              34.139              -2.804              6.206               
C              35.883              -0.26               6.495               
C              34.913              0.861               6.807               
H              36.615              -3.308              6.631               
H              35.736              -1.196              8.386               
H              36.811              0.082               6.606               
H              35.735              -0.557              5.557               
O              35.041              1.541               7.829               
N              33.924              1.052               5.935               
H              33.853              0.462               5.129               
H              33.258              1.779               6.085               
N              33.375              -1.741              8.044               
C              32.018              -2.274              7.945               
C              30.975              -1.2                7.63                
O              30.997              -0.112              8.207               
C              31.614              -2.97               9.281               
O              32.572              -3.984              9.604               
C              30.237              -3.596              9.171               
H              33.676              -1.08               8.789               
H              31.998              -2.961              7.198               
H              31.622              -2.27               10.021              
H              30.318              -4.55               8.872               
H              29.777              -3.571              10.062              
H              29.683              -3.091              8.504               
H              32.328              -4.851              9.156               
N              30.067              -1.513              6.707               
C              28.99               -0.602              6.335               
C              27.695              -1.213              6.876               
O              27.494              -2.425              6.807               
C              28.926              -0.438              4.804               
C              30.049              0.397               4.233               
C              30.019              1.784               4.331               
C              31.156              -0.208              3.635               
C              31.075              2.565               3.847               
C              32.221              0.56                3.146               
C              32.18               1.949               3.254               
H              30.192              -2.455              6.279               
H              29.135              0.242               6.831               
H              28.981              -1.338              4.404               
H              28.073              0.007               4.586               
H              29.238              2.237               4.752               
H              31.192              -1.203              3.554               
H              31.03               3.563               3.928               
H              33.01               0.101               2.717               
H              32.932              2.504               2.912               
N              26.837              -0.378              7.451               
C              25.579              -0.852              8.012               
C              24.403              -0.435              7.142               
O              24.206              0.751               6.876               
C              25.385              -0.31               9.436               
C              24.068              -0.807              10.016              
C              26.551              -0.762              10.307              
H              27.134              0.615               7.465               
H              25.606              -1.859              8.037               
H              25.321              0.681               9.379               
H              24.248              -1.54               10.672              
H              23.602              -0.053              10.479              
H              23.489              -1.154              9.279               
H              27.07               0.039               10.603              
H              26.196              -1.248              11.105              
H              27.142              -1.37               9.777               
N              23.627              -1.424              6.71                
C              22.475              -1.188              5.842               
C              21.175              -1.079              6.627               
O              20.29               -1.927              6.511               
C              22.36               -2.315              4.814               
C              23.624              -2.567              4.053               
H              23.907              -2.372              7.039               
H              22.622              -0.316              5.35                
H              22.101              -3.164              5.287               
H              21.636              -2.083              4.155               
N              24.204              -1.619              3.238               
C              24.415              -3.662              3.977               
C              25.296              -2.12               2.69                
N              25.447              -3.359              3.122               
H              23.851              -0.695              3.087               
H              24.277              -4.528              4.451               
H              25.902              -1.646              2.058               
N              21.077              -0.03               7.435               
C              19.894              0.229               8.244               
C              19.726              1.74                8.287               
O              20.635              2.477               7.901               
C              20.085              -0.302              9.675               
C              20.348              -1.802              9.795               
C              19.166              -2.669              9.379               
O              18.036              -2.146              9.287               
O              19.369              -3.884              9.158               
H              21.918              0.591               7.44                
H              19.099              -0.185              7.826               
H              20.863              0.168               10.065              
H              19.258              -0.104              10.179              
H              21.104              -2.029              9.205               
H              20.546              -2.006              10.739              
N              18.573              2.202               8.76                
C              18.321              3.631               8.858               
C              19.263              4.248               9.885               
O              19.783              3.553               10.762              
C              16.869              3.896               9.269               
O              16.649              3.573               10.635              
H              17.893              1.476               9.043               
H              18.52               4.047               7.969               
H              16.667              4.861               9.128               
H              16.269              3.336               8.704               
H              16.473              2.594               10.72               
N              19.488              5.551               9.769               
C              20.357              6.256               10.698              
C              19.754              6.249               12.1                
O              20.474              6.17                13.098              
C              20.559              7.7                 10.244              
C              21.405              8.574               11.169              
C              22.779              7.948               11.364              
C              21.529              9.961               10.575              
H              19.001              6.01                8.976               
H              21.243              5.785               10.734              
H              21.011              7.682               9.357               
H              19.664              8.126               10.168              
H              20.948              8.651               12.052              
H              23.238              7.866               10.479              
H              23.326              8.526               11.97               
H              22.678              7.04                11.771              
H              20.619              10.368              10.473              
H              22.083              10.539              11.177              
H              21.968              9.906               9.676               
N              18.431              6.333               12.179              
C              17.781              6.338               13.482              
C              17.983              4.988               14.162              
O              18.223              4.923               15.371              
C              16.29               6.65                13.334              
H              17.933              6.391               11.283              
H              18.199              7.049               14.052              
H              16.165              7.328               12.612              
H              15.8                5.813               13.098              
H              15.941              7.011               14.197              
N              17.9                3.913               13.385              
C              18.079              2.573               13.932              
C              19.483              2.367               14.499              
O              19.649              1.787               15.577              
C              17.789              1.518               12.862              
C              16.31               1.193               12.754              
O              15.496              1.911               13.37               
O              15.96               0.22                12.053              
H              17.703              4.105               12.388              
H              17.434              2.476               14.704              
H              18.103              1.871               11.989              
H              18.281              0.692               13.104              
N              20.492              2.841               13.778              
C              21.863              2.694               14.245              
C              22.116              3.62                15.435              
O              22.751              3.222               16.422              
C              22.86               2.978               13.101              
C              24.29               2.814               13.588              
C              22.588              2.026               11.959              
H              20.228              3.303               12.896              
H              21.991              1.749               14.558              
H              22.748              3.93                12.834              
H              24.299              2.753               14.586              
H              24.682              1.979               13.201              
H              24.835              3.601               13.299              
H              21.734              1.532               12.13               
H              22.508              2.542               11.104              
H              23.341              1.37                11.883              
N              21.603              4.847               15.366              
C              21.78               5.782               16.474              
C              21.125              5.237               17.743              
O              21.617              5.464               18.846              
C              21.184              7.151               16.128              
C              22.044              7.949               15.154              
C              21.409              9.264               14.742              
H              21.094              5.067               14.501              
H              22.764              5.871               16.652              
H              20.288              7.015               15.712              
H              21.091              7.683               16.968              
H              22.924              8.142               15.59               
H              22.194              7.395               14.334              
O              20.09               9.359               14.879              
N              22.098              10.18               14.293              
H              21.738              11.093              13.98               
H              23.143              10.061              14.206              
N              20.027              4.504               17.573              
C              19.297              3.923               18.7                
C              20.109              2.867               19.454              
O              19.792              2.526               20.599              
C              17.983              3.31                18.214              
H              19.736              4.381               16.582              
H              19.059              4.665               19.348              
H              17.923              3.401               17.221              
H              17.956              2.344               18.464              
H              17.217              3.788               18.641              
N              21.154              2.348               18.818              
C              21.981              1.337               19.457              
C              22.719              1.935               20.664              
O              23.096              1.214               21.591              
C              22.992              0.729               18.451              
C              23.889              -0.287              19.147              
C              22.24               0.047               17.307              
H              21.318              2.713               17.867              
H              21.384              0.606               19.798              
H              23.577              1.467               18.133              
H              23.546              -0.457              20.071              
H              23.888              -1.142              18.629              
H              24.821              0.071               19.198              
H              22.722              0.221               16.45               
H              22.202              -0.935              17.482              
H              21.315              0.419               17.257              
N              22.898              3.255               20.677              
C              23.594              3.886               21.793              
C              22.826              3.763               23.107              
O              23.373              4.054               24.169              
C              23.887              5.359               21.498              
S              25.105              5.615               20.165              
H              22.52               3.763               19.869              
H              24.488              3.425               21.91               
H              23.038              5.8                 21.227              
H              24.245              5.779               22.326              
N              21.568              3.326               23.04               
C              20.757              3.155               24.246              
C              20.42               1.68                24.464              
O              19.553              1.338               25.277              
C              19.457              3.956               24.131              
O              18.631              3.418               23.114              
H              21.225              3.124               22.085              
H              21.298              3.467               25.032              
H              18.976              3.911               24.999              
H              19.681              4.897               23.904              
H              19.189              3.189               22.317              
N              21.111              0.803               23.746              
C              20.847              -0.622              23.859              
C              21.833              -1.354              24.776              
O              22.214              -0.788              25.8                
C              20.732              -1.218              22.447              
C              19.436              -0.699              21.779              
C              19.272              -1.086              20.32               
H              21.827              1.21                23.123              
H              19.919              -0.74               24.256              
H              21.49               -0.918              21.906              
H              20.668              -2.193              22.511              
H              18.655              -1.06               22.3                
H              19.432              0.304               21.851              
O              19.768              -2.115              19.88               
N              18.537              -0.267              19.57               
H              18.395              -0.454              18.582              
H              18.118              0.552               20.006              
N              22.25               -2.576              24.441              
C              23.132              -3.341              25.336              
C              24.555              -2.831              25.574              
O              25.415              -2.921              24.705              
C              23.192              -4.806              24.894              
C              23.914              -5.715              25.882              
C              23.887              -7.167              25.423              
C              24.566              -8.078              26.435              
N              24.468              -9.521              26.05               
H              21.914              -2.926              23.534              
H              22.66               -3.417              26.258              
H              22.259              -5.138              24.788              
H              23.671              -4.849              24.021              
H              24.865              -5.419              25.961              
H              23.467              -5.649              26.773              
H              22.941              -7.454              25.322              
H              24.369              -7.24               24.557              
H              25.535              -7.824              26.504              
H              24.133              -7.95               27.332              
H              24.542              -10.085             26.871              
H              23.588              -9.683              25.607              
H              25.21               -9.743              25.42               
N              24.8                -2.32               26.782              
C              26.118              -1.797              27.139              
C              27.08               -2.974              27.278              
O              26.82               -3.917              28.034              
C              26.049              -1.044              28.476              
C              27.304              -0.225              28.774              
H              23.991              -2.327              27.43               
H              26.437              -1.248              26.371              
H              25.268              -0.424              28.448              
H              25.928              -1.712              29.207              
O              27.603              0.05                29.939              
N              28.023              0.19                27.737              
H              27.715              -0.042              26.808              
H              28.851              0.721               27.875              
N              28.187              -2.913              26.548              
C              29.198              -3.963              26.585              
C              30.571              -3.315              26.513              
O              30.714              -2.184              26.045              
C              29.065              -4.944              25.389              
C              27.68               -5.594              25.382              
C              29.312              -4.207              24.088              
H              28.27               -2.061              25.954              
H              29.124              -4.438              27.46               
H              29.727              -5.672              25.524              
H              26.985              -4.892              25.527              
H              27.529              -6.039              24.501              
H              27.63               -6.272              26.113              
H              29.603              -4.858              23.386              
H              28.468              -3.756              23.795              
H              30.028              -3.521              24.224              
N              31.584              -4.039              26.971              
H              31.328              -4.973              27.335              
C              27.63               5.948               21.835              
S              26.792              4.676               20.834              
H              27.555              5.681               22.8                
H              27.141              6.816               21.704              
H              39.9175             -3.01147            7.32049             
H              28.6704             6.11413             21.6133             
H              32.5249             -3.68027            26.953              
