271
3.xyz
C              22.171              -0.921              25.156              
O              22.559              -0.363              26.183              
N              22.525              -2.167              24.857              
C              23.347              -2.935              25.793              
C              24.79               -2.476              25.991              
O              25.608              -2.555              25.079              
C              23.342              -4.419              25.42               
C              24.043              -5.278              26.459              
C              24.065              -6.748              26.087              
C              24.808              -7.549              27.153              
N              24.882              -9.006              26.833              
H              22.188              -2.525              23.958              
H              22.878              -2.927              26.713              
H              22.4                -4.719              25.348              
H              23.814              -4.524              24.554              
H              24.991              -4.955              26.563              
H              23.572              -5.173              27.341              
H              23.136              -7.084              26.033              
H              24.538              -6.859              25.225              
H              25.742              -7.184              27.24               
H              24.337              -7.43               28.034              
H              25.127              -9.512              27.658              
H              23.993              -9.315              26.5                
H              25.575              -9.153              26.129              
N              25.094              -2.023              27.204              
C              26.436              -1.557              27.547              
C              27.392              -2.745              27.705              
O              27.192              -3.609              28.56               
C              26.388              -0.759              28.858              
C              27.715              -0.085              29.196              
H              24.302              -2.029              27.881              
H              26.771              -1.015              26.772              
H              25.69               -0.054              28.772              
H              26.154              -1.384              29.598              
O              28.012              0.166               30.367              
N              28.506              0.234               28.173              
H              28.205              0.03                27.238              
H              29.385              0.67                28.334              
N              28.429              -2.782              26.874              
C              29.417              -3.85               26.925              
C              30.818              -3.246              26.902              
O              31.009              -2.118              26.444              
C              29.274              -4.82               25.72               
C              27.942              -5.547              25.784              
C              29.381              -4.046              24.41               
H              28.471              -1.994              26.196              
H              29.307              -4.341              27.791              
H              29.989              -5.504              25.805              
H              27.2                -4.881              25.862              
H              27.815              -6.089              24.952              
H              27.928              -6.153              26.58               
H              29.044              -4.617              23.663              
H              28.831              -3.214              24.474              
H              30.337              -3.807              24.247              
N              31.794              -3.995              27.399              
C              33.169              -3.514              27.425              
C              33.717              -3.385              26.01               
O              33.441              -4.22               25.147              
C              34.039              -4.464              28.234              
H              31.502              -4.921              27.755              
H              33.188              -2.607              27.861              
H              33.61               -5.366              28.266              
H              34.939              -4.54               27.806              
H              34.142              -4.113              29.164              
N              34.468              -2.312              25.777              
C              35.095              -2.071              24.481              
C              36.35               -2.92               24.427              
O              36.927              -3.248              25.466              
C              35.547              -0.628              24.348              
S              34.283              0.666               24.35               
H              34.568              -1.668              26.589              
H              34.475              -2.38               23.77               
H              36.196              -0.433              25.107              
H              36.077              -0.546              23.483              
N              36.794              -3.247              23.219              
C              38.001              -4.05               23.061              
C              39.206              -3.373              23.711              
O              40.112              -4.051              24.204              
C              38.282              -4.302              21.572              
C              37.373              -5.345              20.928              
C              37.563              -5.425              19.424              
C              36.729              -6.556              18.832              
N              36.69               -6.531              17.339              
H              36.229              -2.895              22.43               
H              37.859              -4.945              23.503              
H              38.164              -3.44               21.084              
H              39.227              -4.612              21.483              
H              37.575              -6.242              21.33               
H              36.418              -5.108              21.124              
H              37.27               -4.57               19.014              
H              38.518              -5.602              19.226              
H              37.114              -7.436              19.135              
H              35.788              -6.485              19.185              
H              36.743              -5.585              17.024              
H              37.465              -7.049              16.981              
H              35.836              -6.943              17.025              
N              39.209              -2.042              23.733              
C              40.321              -1.303              24.323              
C              40.232              -1.176              25.842              
O              41.097              -0.566              26.471              
C              40.436              0.092               23.69               
C              39.248              0.988               24.002              
H              38.381              -1.593              23.309              
H              41.168              -1.827              24.121              
H              41.262              0.527               24.039              
H              40.5                -0.018              22.701              
O              38.337              0.611               24.742              
N              39.259              2.194               23.438              
H              40.017              2.461               22.844              
H              38.509              2.832               23.608              
N              39.188              -1.749              26.43               
C              39.032              -1.684              27.872              
C              38.133              -0.569              28.373              
O              37.75               -0.561              29.544              
H              38.528              -2.223              25.796              
H              38.668              -2.582              28.21               
H              39.957              -1.585              28.305              
N              37.801              0.383               27.505              
C              36.926              1.48                27.901              
C              35.526              0.912               28.117              
O              35.232              -0.195              27.674              
C              36.903              2.567               26.827              
C              38.21               3.343               26.699              
C              38.632              3.995               28.001              
H              38.204              0.279               26.561              
H              37.248              1.836               28.773              
H              36.708              2.142               25.941              
H              36.175              3.221               27.045              
H              38.928              2.711               26.41               
H              38.091              4.055               26.007              
O              39.377              3.411               28.789              
N              38.145              5.209               28.239              
H              38.373              5.703               29.098              
H              37.538              5.639               27.544              
N              34.663              1.671               28.783              
C              33.314              1.194               29.087              
C              32.192              1.823               28.273              
O              31.015              1.582               28.554              
C              32.977              1.422               30.574              
O              33.031              2.825               30.858              
C              33.972              0.701               31.474              
H              35.017              2.602               29.06               
H              33.294              0.18                28.926              
H              32.028              1.097               30.748              
H              34.488              1.37                32.013              
H              33.483              0.085               32.095              
H              34.61               0.167               30.915              
H              33.881              3.223               30.496              
N              32.534              2.616               27.265              
C              31.511              3.273               26.461              
C              31.13               2.568               25.166              
O              30.92               3.217               24.143              
C              31.93               4.714               26.152              
C              33.193              4.792               25.316              
H              33.547              2.722               27.108              
H              30.663              3.315               27.035              
H              31.19               5.156               25.652              
H              32.089              5.186               27.015              
O              34.193              4.137               25.614              
N              33.158              5.606               24.267              
H              32.328              6.131               24.07               
H              33.958              5.696               23.674              
N              31.052              1.242               25.199              
C              30.645              0.497               24.013              
C              29.265              -0.088              24.225              
O              28.881              -0.409              25.35               
C              31.656              -0.595              23.663              
S              33.06               0.178               22.809              
H              31.295              0.805               26.099              
H              30.603              1.135               23.24               
H              31.985              -0.994              24.485              
H              31.239              -1.224              23.051              
N              28.517              -0.213              23.136              
C              27.156              -0.716              23.207              
C              26.86               -1.699              22.092              
O              27.299              -1.511              20.96               
C              26.176              0.452               23.131              
C              26.438              1.496               24.182              
C              27.403              2.484               23.983              
C              25.783              1.449               25.41               
C              27.715              3.394               24.984              
C              26.088              2.352               26.416              
C              27.056              3.32                26.199              
O              27.388              4.193               27.204              
H              28.98               0.073               22.252              
H              27.041              -1.197              24.09               
H              26.264              0.875               22.237              
H              25.258              0.098               23.262              
H              27.879              2.538               23.104              
H              25.083              0.755               25.566              
H              28.409              4.097               24.827              
H              25.613              2.307               27.295              
H              27.864              4.98                26.813              
N              26.097              -2.738              22.425              
C              25.726              -3.777              21.468              
C              24.244              -3.647              21.118              
O              23.408              -3.47               22.003              
C              25.998              -5.151              22.082              
C              25.79               -6.324              21.147              
C              26.226              -7.635              21.773              
H              25.789              -2.745              23.422              
H              26.252              -3.63               20.629              
H              26.951              -5.173              22.406              
H              25.39               -5.272              22.877              
H              24.821              -6.389              20.919              
H              26.324              -6.175              20.317              
O              27.344              -7.753              22.273              
N              25.345              -8.629              21.745              
H              25.572              -9.54               22.133              
H              24.431              -8.463              21.326              
N              23.919              -3.731              19.83               
C              22.53               -3.61               19.403              
C              21.722              -4.829              19.849              
O              22.201              -5.961              19.782              
C              22.447              -3.447              17.877              
O              22.932              -4.59               17.187              
H              24.709              -3.884              19.185              
H              22.134              -2.8                19.847              
H              21.492              -3.296              17.624              
H              22.993              -2.653              17.612              
H              22.161              -5.152              16.894              
N              20.505              -4.598              20.332              
C              19.66               -5.709              20.764              
C              19.183              -6.516              19.561              
O              19.025              -7.736              19.639              
C              18.452              -5.2                21.554              
C              18.805              -4.668              22.923              
C              19.407              -5.49               23.879              
C              18.554              -3.342              23.258              
C              19.75               -4.998              25.138              
C              18.895              -2.841              24.509              
C              19.492              -3.671              25.442              
O              19.834              -3.169              26.676              
H              20.223              -3.61               20.373              
H              20.209              -6.314              21.349              
H              18.025              -4.466              21.033              
H              17.813              -5.956              21.668              
H              19.595              -6.447              23.659              
H              18.123              -2.739              22.59               
H              20.178              -5.598              25.811              
H              18.709              -1.884              24.733              
H              20.502              -2.437              26.558              
N              18.949              -5.836              18.445              
C              18.506              -6.52               17.233              
C              19.686              -6.685              16.285              
O              20.669              -5.95               16.373              
C              17.397              -5.72               16.541              
O              16.222              -5.671              17.336              
H              19.102              -4.818              18.506              
H              18.185              -7.432              17.49               
H              17.722              -4.791              16.385              
H              17.182              -6.158              15.672              
H              16.475              -5.641              18.302              
N              19.609              -7.669              15.395              
C              20.687              -7.851              14.437              
C              20.488              -6.783              13.377              
O              19.372              -6.29               13.179              
C              20.648              -9.239              13.751              
O              19.418              -9.387              13.03               
C              20.782              -10.351             14.784              
H              18.769              -8.252              15.444              
H              21.551              -7.688              14.891              
H              21.418              -9.294              13.085              
H              21.191              -11.161             14.359              
H              21.366              -10.044             15.538              
H              19.878              -10.59              15.144              
H              19.591              -9.783              12.122              
N              21.577              -6.41               12.717              
H              22.451              -6.888              13.013              
H              21.5409             -5.71543            11.9877             
H              21.5261             -0.392624           24.4873             
