373
5.xyz
C              22.538              6.066               16.688              
C              21.885              5.572               17.975              
O              22.418              5.766               19.069              
C              22.016              7.46                16.339              
C              22.888              8.195               15.332              
C              22.273              9.497               14.856              
H              23.531              6.091               16.838              
H              21.1                7.373               15.952              
H              21.977              8.008               17.174              
H              23.77               8.397               15.759              
H              23.032              7.601               14.539              
O              20.952              9.589               14.935              
N              22.981              10.404              14.406              
H              22.634              11.304              14.054              
H              24.029              10.281              14.365              
N              20.731              4.929               17.831              
C              19.988              4.403               18.971              
C              20.748              3.313               19.723              
O              20.429              3.014               20.877              
C              18.646              3.862               18.504              
H              20.407              4.834               16.846              
H              19.8                5.164               19.615              
H              18.723              3.546               17.558              
H              18.371              3.098               19.088              
H              17.957              4.584               18.557              
N              21.743              2.712               19.081              
C              22.5                1.659               19.747              
C              23.224              2.213               20.976              
O              23.493              1.48                21.934              
C              23.523              0.995               18.789              
C              24.305              -0.083              19.523              
C              22.791              0.38                17.602              
H              21.921              3.038               18.126              
H              21.854              0.957               20.062              
H              24.172              1.695               18.516              
H              25.058              0.336               20.03               
H              23.7                -0.559              20.161              
H              24.673              -0.738              18.863              
H              23.417              0.32                16.825              
H              22.472              -0.534              17.85               
H              22.01               0.956               17.363              
N              23.513              3.511               20.956              
C              24.199              4.16                22.069              
C              23.404              4.089               23.37               
O              23.941              4.365               24.441              
C              24.486              5.624               21.737              
S              25.702              5.865               20.401              
H              23.214              4.012               20.097              
H              25.081              3.685               22.216              
H              23.633              6.056               21.457              
H              24.839              6.068               22.557              
N              22.129              3.73                23.275              
C              21.288              3.619               24.464              
C              20.885              2.168               24.712              
O              19.986              1.889               25.508              
C              20.035              4.489               24.319              
O              19.389              4.682               25.563              
H              21.794              3.542               22.316              
H              21.824              3.93                25.256              
H              20.303              5.376               23.95               
H              19.404              4.038               23.691              
H              19.932              5.301               26.129              
N              21.564              1.244               24.04               
C              21.247              -0.164              24.198              
C              21.135              -0.795              22.807              
C              19.833              -0.308              22.157              
C              19.68               -0.62               20.679              
H              22.306              1.605               23.421              
H              20.3                -0.233              24.573              
H              21.883              -0.494              22.255              
H              21.086              -1.768              22.897              
H              19.058              -0.726              22.654              
H              19.775              0.694               22.282              
O              20.062              -1.692              20.207              
N              19.084              0.318               19.943              
H              18.958              0.187               18.941              
H              18.757              1.165               20.399              
C              24.564              -7.428              16.338              
C              25.817              -6.587              16.227              
O              26.905              -7.162              16.194              
C              24.494              -8.055              17.731              
C              23.205              -8.858              17.946              
H              23.78               -6.859              16.109              
H              25.261              -8.679              17.858              
H              24.519              -7.338              18.423              
N              23.185              -10.241             18.026              
C              21.925              -8.418              18.055              
C              21.936              -10.619             18.183              
N              21.146              -9.538              18.197              
H              23.979              -10.831             17.974              
H              21.617              -7.478              18.035              
H              21.612              -11.56              18.277              
N              25.708              -5.265              16.182              
C              26.915              -4.451              16.088              
C              27.293              -3.886              17.449              
O              26.443              -3.741              18.331              
C              26.757              -3.266              15.091              
C              25.697              -2.279              15.591              
C              26.39               -3.793              13.714              
C              25.585              -1.013              14.756              
H              24.758              -4.89               16.217              
H              27.655              -5.075              15.819              
H              27.628              -2.792              15.048              
H              24.812              -2.741              15.596              
H              25.927              -2.022              16.529              
H              26.328              -3.032              13.07               
H              27.09               -4.434              13.403              
H              25.509              -4.261              13.759              
H              25.343              -1.259              13.82               
H              24.878              -0.426              15.144              
H              26.462              -0.536              14.765              
N              28.578              -3.594              17.623              
C              29.073              -3.015              18.866              
C              29.818              -1.738              18.5                
O              30.789              -1.775              17.738              
C              30.033              -3.976              19.611              
C              29.292              -5.256              20.01               
C              30.578              -3.306              20.867              
C              29.023              -6.201              18.85               
H              29.188              -3.811              16.81               
H              28.274              -2.739              19.385              
H              30.761              -4.222              18.985              
H              29.835              -5.735              20.697              
H              28.417              -4.997              20.418              
H              31.206              -3.928              21.33               
H              31.062              -2.471              20.615              
H              29.822              -3.081              21.478              
H              29.892              -6.475              18.442              
H              28.54               -7.006              19.188              
H              28.463              -5.733              18.169              
N              29.354              -0.608              19.024              
C              29.989              0.67                18.73               
C              30.33               1.428               20.006              
O              29.776              1.155               21.069              
C              29.076              1.577               17.857              
C              28.754              0.889               16.537              
C              27.779              1.91                18.606              
H              28.53               -0.714              19.638              
H              30.851              0.487               18.238              
H              29.592              2.398               17.643              
H              29.51               0.287               16.281              
H              27.918              0.35                16.637              
H              28.622              1.578               15.825              
H              27.51               2.845               18.387              
H              27.066              1.273               18.319              
H              27.94               1.822               19.587              
N              31.267              2.364               19.893              
C              31.669              3.198               21.017              
C              30.944              4.526               20.809              
O              30.871              5.022               19.688              
C              33.183              3.415               21.003              
H              31.683              2.447               18.941              
H              31.35               2.791               21.856              
H              33.605              2.758               20.381              
H              33.381              4.344               20.694              
H              33.544              3.284               21.925              
N              30.401              5.093               21.878              
C              29.688              6.358               21.768              
C              30.238              7.385               22.734              
O              30.758              7.046               23.793              
C              28.205              6.172               22.08               
S              27.365              4.915               21.077              
H              30.524              4.576               22.764              
H              29.811              6.708               20.829              
H              28.118              5.911               23.042              
H              27.743              7.048               21.932              
N              30.11               8.648               22.356              
C              30.532              9.747               23.21               
C              29.966              11.06               22.706              
O              29.426              11.129              21.603              
C              32.059              9.821               23.33               
C              32.853              9.753               22.056              
C              34.352              9.77                22.327              
O              34.829              8.957               23.145              
O              35.06               10.598              21.727              
H              29.69               8.782               21.414              
H              30.218              9.584               24.153              
H              32.275              10.686              23.78               
H              32.345              9.06                23.911              
H              32.65               8.91                21.6                
H              32.649              10.54               21.51               
N              30.052              12.081              23.552              
C              29.578              13.405              23.198              
C              28.158              13.754              23.596              
O              27.471              13.006              24.297              
H              30.481              11.849              24.471              
H              30.219              14.108              23.604              
H              29.677              13.532              22.176              
N              27.735              14.93               23.149              
C              26.394              15.434              23.391              
C              25.998              16.17               22.12               
O              26.487              17.27               21.854              
C              26.374              16.396              24.577              
C              25.01               17.015              24.789              
H              28.455              15.465              22.604              
H              25.793              14.654              23.474              
H              26.626              15.891              25.396              
H              27.031              17.123              24.403              
O              23.989              16.335              24.681              
N              24.983              18.308              25.099              
H              25.843              18.818              25.174              
H              24.113              18.769              25.256              
N              25.099              15.578              21.32               
C              24.434              14.286              21.532              
C              25.363              13.076              21.628              
O              26.436              13.046              21.025              
C              23.491              14.192              20.337              
C              24.262              14.88               19.263              
C              24.785              16.106              19.98               
H              23.828              14.334              22.359              
H              23.314              13.241              20.099              
H              22.634              14.663              20.523              
H              25.011              14.313              18.944              
H              23.67               15.138              18.511              
H              25.604              16.46               19.54               
H              24.09               16.817              20.035              
N              24.93               12.081              22.39               
C              25.692              10.849              22.581              
C              25.486              10.001              21.328              
O              24.437              9.375               21.166              
C              25.162              10.115              23.811              
C              26.117              9.107               24.404              
C              27.406              9.485               24.783              
C              25.715              7.793               24.647              
C              28.27               8.588               25.398              
C              26.572              6.883               25.262              
C              27.848              7.289               25.639              
O              28.694              6.414               26.284              
H              24.003              12.251              22.84               
H              26.654              11.079              22.645              
H              24.949              10.795              24.514              
H              24.324              9.634               23.551              
H              27.715              10.422              24.608              
H              24.801              7.501               24.378              
H              29.189              8.877               25.666              
H              26.274              5.947               25.431              
H              29.436              6.162               25.666              
N              26.486              9.988               20.449              
C              26.4                9.256               19.183              
C              27.598              8.343               18.928              
O              28.609              8.425               19.623              
C              26.282              10.245              17.992              
C              24.951              11.005              18.065              
C              27.453              11.228              18.01               
H              27.323              10.535              20.734              
H              25.568              8.675               19.215              
H              26.263              9.709               17.158              
H              25.131              11.959              18.296              
H              24.495              10.952              17.179              
H              24.375              10.591              18.767              
H              27.429              11.749              18.861              
H              28.309              10.717              17.949              
H              27.372              11.847              17.231              
N              27.498              7.451               17.924              
C              28.604              6.539               17.612              
C              29.827              7.268               17.058              
O              29.691              8.162               16.22               
C              28.001              5.603               16.563              
C              26.537              5.631               16.867              
C              26.296              7.091               17.152              
H              28.855              5.992               18.428              
H              28.181              5.942               15.64               
H              28.369              4.68                16.658              
H              26.009              5.329               16.083              
H              26.333              5.074               17.663              
H              26.245              7.622               16.314              
H              25.474              7.225               17.697              
N              31.014              6.883               17.52               
C              32.253              7.491               17.043              
C              33.294              6.44                16.666              
O              34.408              6.777               16.269              
C              32.881              8.429               18.098              
C              31.953              9.595               18.369              
C              33.169              7.661               19.385              
H              30.983              6.13                18.232              
H              32.04               8.027               16.214              
H              33.716              8.8                 17.709              
H              32.483              10.38               18.693              
H              31.472              9.847               17.528              
H              31.283              9.338               19.067              
H              33.346              6.703               19.163              
H              33.97               8.058               19.831              
H              32.377              7.727               19.991              
N              32.933              5.167               16.793              
C              33.853              4.082               16.471              
C              33.091              2.77                16.355              
O              32.154              2.529               17.112              
C              34.922              3.98                17.569              
C              35.606              2.647               17.647              
H              31.966              5.017               17.132              
H              34.28               4.279               15.585              
H              35.623              4.686               17.407              
H              34.49               4.166               18.461              
N              36.586              2.253               16.761              
C              35.463              1.627               18.527              
C              37.02               1.05                17.094              
N              36.355              0.647               18.163              
H              34.829              1.592               19.295              
H              37.727              0.533               16.62               
H              36.481              -0.229              18.631              
N              33.474              1.942               15.383              
C              32.848              0.637               15.192              
C              33.791              -0.353              15.856              
O              34.922              -0.539              15.41               
C              32.713              0.294               13.707              
C              31.843              -0.906              13.445              
C              30.482              -0.751              13.209              
C              32.384              -2.19               13.45               
C              29.663              -1.862              12.978              
C              31.577              -3.309              13.217              
C              30.215              -3.143              12.982              
H              34.243              2.301               14.785              
H              32.014              0.636               15.717              
H              32.307              1.07                13.252              
H              33.615              0.099               13.358              
H              30.077              0.157               13.201              
H              33.359              -2.316              13.621              
H              28.683              -1.728              12.812              
H              31.989              -4.23               13.223              
H              29.632              -3.934              12.816              
N              33.334              -0.995              16.921              
C              34.197              -1.918              17.644              
C              34.184              -3.359              17.156              
O              35.242              -3.984              17.036              
C              33.858              -1.873              19.132              
C              35.054              -2.168              20.001              
O              36.127              -1.573              19.756              
O              34.925              -2.982              20.933              
H              32.359              -0.792              17.18               
H              35.158              -1.576              17.533              
H              33.523              -0.962              19.342              
H              33.156              -2.552              19.307              
N              32.997              -3.889              16.876              
C              32.881              -5.27               16.424              
C              31.458              -5.653              16.053              
O              30.524              -4.871              16.21               
C              33.382              -6.205              17.521              
H              32.191              -3.255              17.003              
H              33.472              -5.393              15.607              
H              34.332              -6.453              17.338              
H              33.322              -5.743              18.405              
H              32.819              -7.03               17.537              
N              31.311              -6.87               15.542              
C              30.004              -7.408              15.193              
C              29.992              -8.818              15.764              
O              31.005              -9.513              15.718              
C              29.8                -7.444              13.675              
O              30.737              -8.291              13.039              
H              32.2                -7.398              15.415              
H              29.315              -6.882              15.661              
H              28.878              -7.776              13.485              
H              29.904              -6.517              13.317              
H              31.137              -7.818              12.255              
N              28.863              -9.234              16.324              
C              28.776              -10.564             16.912              
C              27.481              -11.286             16.56               
O              26.485              -10.614             16.224              
C              28.914              -10.494             18.451              
C              30.309              -10.004             18.825              
C              27.86               -9.559              19.024              
O              27.482              -12.53              16.636              
H              28.084              -8.559              16.306              
H              29.547              -11.118             16.553              
H              28.826              -11.417             18.803              
H              30.944              -10.776             18.822              
H              30.61               -9.321              18.161              
H              30.284              -9.595              19.737              
H              27.355              -10.033             19.746              
H              28.308              -8.749              19.403              
H              27.23               -9.286              18.297              
H              24.6397             -8.20466            15.6298             
H              22.3422             5.39197             15.891              
H              21.9105             -0.707617           24.886              
