241
1.xyz
C              32.453              -4.892              -6.269              
C              32.198              -3.847              -5.19               
O              32.978              -2.909              -5.027              
C              32.282              -4.24               -7.643              
C              32.492              -5.214              -8.781              
H              33.388              -5.24               -6.128              
H              31.357              -3.873              -7.703              
H              32.948              -3.503              -7.725              
O              33.537              -5.859              -8.877              
N              31.499              -5.324              -9.656              
H              30.671              -4.772              -9.543              
H              31.576              -5.955              -10.427             
N              31.096              -4.017              -4.463              
C              30.7                -3.093              -3.405              
C              31.853              -2.532              -2.58               
O              32.047              -1.317              -2.521              
C              29.707              -3.768              -2.459              
C              29.232              -2.865              -1.339              
C              28.297              -1.857              -1.577              
C              29.736              -3.006              -0.046              
C              27.873              -1.012              -0.548              
C              29.323              -2.169              0.984               
C              28.392              -1.177              0.727               
O              27.975              -0.36               1.75                
H              30.541              -4.866              -4.715              
H              30.214              -2.305              -3.84               
H              28.913              -4.052              -2.987              
H              30.151              -4.56               -2.051              
H              27.923              -1.734              -2.495              
H              30.405              -3.723              0.143               
H              27.201              -0.297              -0.733              
H              29.696              -2.283              1.904               
H              27.241              0.231               1.42                
N              32.615              -3.413              -1.945              
C              33.721              -2.97               -1.108              
C              34.827              -2.237              -1.859              
O              35.344              -1.232              -1.369              
C              34.305              -4.15               -0.329              
S              33.33               -4.683              1.125               
H              32.363              -4.403              -2.092              
H              33.348              -2.333              -0.402              
H              34.38               -4.931              -0.949              
H              35.217              -3.893              -0.007              
N              35.194              -2.72               -3.043              
C              36.242              -2.048              -3.8                
C              35.82               -0.619              -4.12               
O              36.63               0.302               -4.056              
C              36.556              -2.794              -5.106              
C              37.126              -4.176              -4.864              
H              34.7                -3.56               -3.356              
H              37.049              -1.99               -3.207              
H              35.711              -2.882              -5.625              
H              37.221              -2.258              -5.618              
O              38.01               -4.356              -4.026              
N              36.629              -5.162              -5.606              
H              35.92               -4.964              -6.285              
H              36.962              -6.095              -5.488              
N              34.544              -0.44               -4.452              
C              34.019              0.877               -4.797              
C              32.704              0.739               -5.565              
C              32.753              -0.235              -6.727              
C              31.445              -0.283              -7.486              
H              33.966              -1.303              -4.444              
H              34.703              1.338               -5.389              
H              31.992              0.43                -4.928              
H              32.446              1.642               -5.924              
H              33.476              0.049               -7.354              
H              32.952              -1.147              -6.374              
O              30.371              -0.331              -6.887              
N              31.527              -0.276              -8.812              
H              30.691              -0.32               -9.389              
H              32.448              -0.224              -9.247              
C              21.525              -5.409              11.666              
C              22.217              -5.928              10.426              
O              23.102              -6.785              10.502              
C              22.207              -4.116              12.112              
C              21.585              -3.499              13.342              
S              22.266              -1.879              13.678              
C              20.986              -1.212              14.711              
H              20.561              -5.24               11.44               
H              23.177              -4.31               12.303              
H              22.162              -3.448              11.358              
H              20.572              -3.449              13.207              
H              21.731              -4.128              14.135              
H              20.252              -1.887              14.828              
H              21.359              -0.978              15.613              
H              20.603              -0.384              14.293              
N              21.801              -5.407              9.28                
C              22.394              -5.791              8.011               
C              23.718              -5.04               7.87                
O              23.749              -3.811              7.942               
C              21.457              -5.413              6.868               
O              22.076              -5.637              5.614               
H              21.031              -4.715              9.369               
H              22.598              -6.764              8.039               
H              20.635              -5.97               6.927               
H              21.226              -4.448              6.947               
H              21.542              -5.195              4.895               
N              24.807              -5.779              7.681               
C              26.12               -5.159              7.535               
C              26.899              -5.763              6.38                
O              26.498              -6.774              5.804               
C              26.983              -5.328              8.808               
C              27.349              -6.804              9.012               
C              26.23               -4.784              10.018              
C              28.292              -7.052              10.177              
H              24.646              -6.799              7.648               
H              25.951              -4.194              7.298               
H              27.824              -4.818              8.676               
H              26.507              -7.32               9.162               
H              27.782              -7.136              8.175               
H              26.805              -4.864              10.83               
H              26.003              -3.825              9.863               
H              25.391              -5.308              10.15               
H              27.863              -6.733              11.02               
H              28.481              -8.03               10.244              
H              29.143              -6.554              10.022              
N              28.015              -5.124              6.048               
C              28.899              -5.598              4.99                
C              30.319              -5.397              5.488               
O              30.724              -4.272              5.784               
C              28.733              -4.791              3.683               
O              27.428              -5.004              3.136               
C              29.778              -5.218              2.658               
H              28.202              -4.262              6.604               
H              28.744              -6.568              4.856               
H              28.832              -3.797              3.899               
H              30.232              -4.409              2.28                
H              30.462              -5.804              3.096               
H              29.336              -5.725              1.915               
H              26.871              -5.559              3.763               
N              31.072              -6.484              5.611               
C              32.45               -6.372              6.058               
C              33.344              -6.302              4.838               
O              33.151              -7.043              3.876               
C              32.866              -7.577              6.904               
C              32.143              -7.633              8.226               
O              32.07               -6.587              8.904               
O              31.657              -8.727              8.589               
H              30.611              -7.372              5.371               
H              32.537              -5.501              6.54                
H              32.658              -8.399              6.386               
H              33.843              -7.51               7.071               
N              34.31               -5.395              4.876               
C              35.252              -5.252              3.782               
C              36.62               -5.653              4.303               
O              37.161              -5.022              5.213               
C              35.277              -3.812              3.279               
S              33.722              -3.255              2.518               
H              34.331              -4.813              5.735               
H              34.997              -5.884              3.057               
H              35.474              -3.212              4.052               
H              36.001              -3.731              2.596               
N              37.164              -6.719              3.724               
C              38.464              -7.247              4.112               
C              39.423              -7.177              2.93                
O              39.112              -7.659              1.839               
C              38.315              -8.703              4.569               
C              39.623              -9.39               4.936               
C              39.389              -10.851             5.306               
N              40.628              -11.544             5.659               
C              40.695              -12.827             6.006               
N              39.592              -13.564             6.05                
N              41.865              -13.375             6.31                
H              36.578              -7.143              2.968               
H              38.834              -6.689              4.859               
H              37.723              -8.717              5.371               
H              37.893              -9.22               3.828               
H              40.243              -9.363              4.159               
H              40.029              -8.934              5.721               
H              38.765              -10.876             6.084               
H              38.97               -11.303             4.521               
H              41.484              -11.016             5.638               
H              38.706              -13.181             5.807               
H              39.651              -14.53              6.333               
H              42.699              -12.819             6.257               
H              41.917              -14.33              6.588               
N              40.585              -6.574              3.153               
C              41.588              -6.439              2.105               
C              42.123              -7.798              1.667               
O              42.393              -8.665              2.497               
C              42.743              -5.559              2.594               
C              43.915              -5.474              1.628               
C              44.972              -4.485              2.076               
O              45.375              -4.54               3.256               
O              45.405              -3.658              1.247               
H              40.713              -6.215              4.119               
H              41.186              -5.966              1.309               
H              42.392              -4.648              2.718               
H              43.077              -5.944              3.436               
H              44.337              -6.36               1.578               
H              43.576              -5.173              0.756               
N              42.264              -7.979              0.356               
C              42.776              -9.232              -0.186              
C              44.277              -9.317              0.06                
O              44.875              -8.403              0.634               
C              42.528              -9.339              -1.703              
O              43.2                -8.266              -2.373              
C              41.039              -9.271              -2.007              
H              41.985              -7.171              -0.229              
H              42.334              -9.993              0.292               
H              42.919              -10.219             -2.038              
H              40.515              -9.579              -1.21               
H              40.779              -8.328              -2.226              
H              40.824              -9.861              -2.789              
H              42.818              -7.381              -2.086              
N              44.882              -10.416             -0.378              
C              46.31               -10.596             -0.192              
C              47.132              -9.932              -1.28               
O              48.227              -9.434              -1.02               
H              44.267              -11.102             -0.844              
H              46.582              -10.217             0.71                
H              46.524              -11.589             -0.171              
N              46.603              -9.921              -2.5                
C              47.297              -9.319              -3.633              
C              47.071              -7.813              -3.696              
O              47.614              -7.132              -4.566              
C              46.825              -9.959              -4.939              
O              45.448              -9.713              -5.16               
H              45.669              -10.371             -2.574              
H              48.287              -9.478              -3.514              
H              47.349              -9.574              -5.693              
H              46.974              -10.943             -4.886              
H              45.065              -9.228              -4.374              
N              46.265              -7.3                -2.771              
C              45.962              -5.875              -2.711              
C              47.205              -5.035              -2.427              
O              47.865              -5.217              -1.402              
C              44.909              -5.616              -1.631              
O              44.722              -4.229              -1.423              
H              45.874              -7.996              -2.102              
H              45.599              -5.593              -3.612              
H              44.047              -6.021              -1.921              
H              45.215              -6.034              -0.78               
H              44.949              -3.999              -0.477              
N              47.517              -4.116              -3.338              
H              46.873              -4.077              -4.154              
H              31.7928             -5.71816            -6.17001            
H              48.3219             -3.50678            -3.23531            
H              33.851              1.51613             -3.92448            
H              21.5629             -6.13762            12.431              
