387
0.xyz
N              9.374               19.487              43.006              
C              8.995               20.242              41.78               
C              10.227              20.667              40.996              
O              11.223              21.106              41.568              
C              8.175               21.478              42.15               
C              7.712               22.336              40.97               
C              6.848               21.503              40.033              
C              6.936               23.537              41.485              
H              8.547               19.201              43.483              
H              8.437               19.635              41.207              
H              7.362               21.173              42.632              
H              8.734               22.053              42.734              
H              8.511               22.668              40.477              
H              6.048               21.164              40.529              
H              6.548               22.068              39.264              
H              7.379               20.728              39.689              
H              7.523               24.085              42.083              
H              6.634               24.098              40.713              
H              6.137               23.224              42.001              
H              9.907               18.686              42.746              
H              9.918               20.076              43.599              
N              10.147              20.524              39.679              
C              11.241              20.886              38.791              
C              10.753              21.844              37.716              
O              9.698               21.636              37.125              
C              11.83               19.636              38.135              
C              12.559              18.714              39.099              
C              13.138              17.51               38.376              
C              14.006              16.674              39.303              
N              15.158              17.453              39.834              
H              9.241               20.133              39.34               
H              11.961              21.341              39.327              
H              11.084              19.124              37.714              
H              12.475              19.929              37.431              
H              13.304              19.219              39.534              
H              11.918              18.396              39.796              
H              12.391              16.943              38.044              
H              13.698              17.826              37.618              
H              13.445              16.351              40.07               
H              14.352              15.879              38.797              
H              14.995              18.428              39.687              
H              15.256              17.274              40.812              
H              15.992              17.177              39.358              
N              11.527              22.897              37.474              
C              11.183              23.893              36.474              
C              12.33               24.086              35.488              
O              13.501              23.97               35.846              
C              10.891              25.241              37.135              
S              9.55                25.274              38.364              
H              12.389              22.943              38.057              
H              10.383              23.565              35.959              
H              11.735              25.555              37.587              
H              10.662              25.901              36.407              
N              11.992              24.412              34.25               
C              13.01               24.632              33.241              
C              13.719              25.962              33.455              
O              13.248              26.817              34.199              
C              12.384              24.586              31.846              
C              11.841              23.21               31.503              
H              10.977              24.492              34.075              
H              13.704              23.909              33.35               
H              11.635              25.239              31.815              
H              13.082              24.827              31.18               
O              12.588              22.236              31.422              
N              10.536              23.125              31.305              
H              9.962               23.943              31.378              
H              10.116              22.244              31.081              
N              14.874              26.107              32.812              
C              15.673              27.323              32.896              
C              15.48               28.039              31.576              
O              14.896              27.464              30.658              
C              17.156              26.986              33.049              
C              17.526              26.109              34.233              
C              19.038              25.9                34.233              
C              19.501              24.953              35.319              
N              20.955              24.665              35.158              
H              15.157              25.277              32.244              
H              15.325              27.89               33.628              
H              17.458              26.521              32.208              
H              17.665              27.853              33.129              
H              17.266              26.563              35.072              
H              17.081              25.231              34.144              
H              19.307              25.526              33.344              
H              19.482              26.786              34.369              
H              19.348              25.373              36.209              
H              18.99               24.1                35.252              
H              21.389              24.645              36.058              
H              21.069              23.779              34.711              
H              21.373              25.38               34.599              
N              15.97               29.274              31.475              
C              15.854              30.034              30.227              
C              15.987              29.031              29.096              
O              15.068              28.859              28.299              
C              16.962              31.082              30.114              
C              16.952              31.942              28.845              
C              15.63               32.722              28.706              
C              18.132              32.882              28.89               
H              16.425              29.638              32.327              
H              14.954              30.443              30.188              
H              16.879              31.701              30.891              
H              17.837              30.608              30.144              
H              17.064              31.35               28.047              
H              15.52               33.318              29.498              
H              15.661              33.268              27.872              
H              14.874              32.074              28.66               
H              18.985              32.356              28.935              
H              18.143              33.455              28.067              
H              18.067              33.472              29.698              
N              17.126              28.349              29.046              
C              17.334              27.329              28.026              
C              16.527              26.104              28.458              
O              16.795              25.517              29.5                
C              18.808              26.927              27.922              
C              19.006              25.984              26.744              
C              19.667              28.158              27.782              
H              17.822              28.596              29.765              
H              16.957              27.657              27.171              
H              19.046              26.419              28.742              
H              19.072              25.043              27.077              
H              18.229              26.062              26.119              
H              19.847              26.226              26.26               
H              19.509              28.77               28.56               
H              20.634              27.894              27.759              
H              19.435              28.636              26.933              
N              15.526              25.71               27.657              
C              14.655              24.56               27.93               
C              15.386              23.275              28.31               
O              14.94               22.54               29.186              
C              13.874              24.411              26.628              
C              13.752              25.818              26.166              
C              15.15               26.349              26.385              
H              13.966              24.803              28.648              
H              14.382              23.858              25.973              
H              12.98               24.007              26.796              
H              13.507              25.859              25.205              
H              13.095              26.319              26.717              
H              15.763              26.068              25.654              
H              15.151              27.341              26.474              
N              16.505              23.015              27.643              
C              17.306              21.816              27.89               
C              17.857              21.688              29.299              
O              18.577              20.744              29.601              
C              18.466              21.756              26.905              
C              18.241              20.915              25.65               
C              16.925              21.29               24.988              
C              19.419              21.12               24.705              
H              16.763              23.734              26.932              
H              16.719              20.999              27.699              
H              18.665              22.687              26.606              
H              19.254              21.375              27.38               
H              18.221              19.949              25.905              
H              16.942              22.257              24.732              
H              16.791              20.732              24.168              
H              16.171              21.129              25.626              
H              20.264              20.834              25.158              
H              19.282              20.573              23.878              
H              19.484              22.087              24.458              
N              17.523              22.635              30.162              
C              18.004              22.595              31.529              
C              16.905              22.969              32.503              
O              16.001              23.733              32.176              
C              19.184              23.549              31.702              
C              20.35               23.239              30.813              
C              20.94               21.976              30.833              
C              20.862              24.208              29.958              
C              22.02               21.683              30.016              
C              21.941              23.928              29.137              
C              22.524              22.662              29.164              
H              16.91               23.379              29.786              
H              18.256              21.639              31.726              
H              18.869              24.462              31.488              
H              19.489              23.486              32.641              
H              20.58               21.274              31.442              
H              20.444              25.117              29.937              
H              22.435              20.769              30.042              
H              22.306              24.642              28.52               
H              23.302              22.455              28.574              
N              16.986              22.423              33.707              
C              15.999              22.715              34.726              
C              16.64               22.671              36.093              
O              17.818              22.342              36.231              
C              14.852              21.708              34.674              
C              15.288              20.273              34.832              
C              15.819              19.561              33.758              
C              15.186              19.631              36.063              
C              16.239              18.241              33.909              
C              15.602              18.318              36.223              
C              16.128              17.629              35.145              
O              16.552              16.332              35.316              
H              17.793              21.789              33.849              
H              15.647              23.644              34.571              
H              14.213              21.924              35.409              
H              14.395              21.8                33.791              
H              15.901              20.001              32.864              
H              14.808              20.126              36.844              
H              16.618              17.744              33.129              
H              15.522              17.87               37.114              
H              17.282              16.313              35.997              
N              15.859              23.02               37.104              
C              16.346              23.002              38.467              
C              15.2                22.616              39.385              
O              14.038              22.655              38.989              
C              16.906              24.376              38.859              
C              15.864              25.445              39.141              
C              16.528              26.77               39.494              
C              15.516              27.784              40.009              
N              16.145              29.105              40.322              
H              14.896              23.299              36.838              
H              17.07               22.317              38.55               
H              17.467              24.258              39.682              
H              17.492              24.696              38.109              
H              15.299              25.575              38.329              
H              15.295              25.156              39.907              
H              17.206              26.61               40.204              
H              16.961              27.14               38.679              
H              14.805              27.918              39.312              
H              15.086              27.422              40.842              
H              15.6                29.833              39.91               
H              16.177              29.226              41.312              
H              17.071              29.123              39.949              
N              15.538              22.223              40.605              
C              14.536              21.844              41.584              
C              14.247              23.07               42.444              
O              15.166              23.681              43.011              
C              15.042              20.68               42.46               
O              15.359              19.56               41.622              
C              13.984              20.268              43.47               
H              16.56               22.211              40.793              
H              13.7                21.59               41.11               
H              15.894              20.973              42.935              
H              14.415              19.79               44.239              
H              13.507              21.08               43.815              
H              13.318              19.656              43.036              
H              15.659              19.876              40.716              
N              12.974              23.444              42.522              
C              12.577              24.611              43.297              
C              12.859              24.44               44.782              
O              12.695              23.356              45.343              
C              11.087              24.917              43.113              
S              10.54               25.285              41.414              
H              12.309              22.848              41.997              
H              13.109              25.406              42.967              
H              10.564              24.123              43.442              
H              10.859              25.71               43.69               
N              13.294              25.521              45.439              
C              13.598              25.499              46.868              
C              12.299              25.584              47.661              
O              11.344              26.223              47.221              
C              14.467              26.729              47.038              
C              13.837              27.687              46.079              
C              13.621              26.835              44.853              
H              14.113              24.678              47.114              
H              14.42               27.077              47.969              
H              15.41               26.542              46.785              
H              12.972              28.024              46.434              
H              14.451              28.443              45.883              
H              12.863              27.172              44.304              
H              14.447              26.777              44.299              
N              12.271              24.932              48.822              
C              11.093              24.911              49.685              
C              10.281              26.194              49.573              
O              10.841              27.292              49.575              
C              11.519              24.694              51.122              
H              13.16               24.439              49.061              
H              10.506              24.133              49.412              
H              10.866              25.136              51.739              
H              11.548              23.714              51.321              
H              12.428              25.087              51.268              
N              8.962               26.053              49.477              
C              8.107               27.221              49.364              
C              7.73                27.519              47.926              
O              6.584               27.313              47.529              
H              8.62                25.082              49.49               
H              7.264               27.075              49.907              
H              8.582               28.025              49.758              
N              8.692               28.01               47.147              
C              8.46                28.324              45.743              
C              7.855               27.11               45.067              
O              8.576               26.244              44.593              
C              9.775               28.676              45.043              
C              10.537              29.823              45.68               
C              11.717              30.257              44.819              
C              12.385              31.48               45.411              
N              13.474              32.02               44.558              
H              9.607               28.147              47.622              
H              7.815               29.086              45.682              
H              10.359              27.865              45.054              
H              9.566               28.922              44.096              
H              9.921               30.603              45.796              
H              10.88               29.534              46.574              
H              12.375              29.517              44.784              
H              11.386              30.48               43.912              
H              11.688              32.198              45.549              
H              12.765              31.24               46.316              
H              14.244              31.382              44.557              
H              13.138              32.138              43.624              
H              13.773              32.903              44.919              
N              6.53                27.051              45.019              
C              5.848               25.921              44.406              
C              5.259               26.254              43.041              
O              4.092               25.97               42.778              
C              4.744               25.413              45.337              
C              3.793               26.512              45.766              
H              6.039               27.858              45.444              
H              6.542               25.197              44.258              
H              4.225               24.712              44.856              
H              5.172               25.026              46.149              
O              3.142               27.147              44.937              
N              3.707               26.743              47.071              
H              4.26                26.206              47.711              
H              3.093               27.452              47.416              
N              6.065               26.852              42.169              
C              5.592               27.193              40.826              
C              6.686               27.385              39.784              
O              7.833               27.681              40.104              
C              4.726               28.46               40.861              
C              3.287               28.328              41.358              
C              2.582               29.668              41.269              
C              2.56                27.285              40.521              
H              7.018               27.048              42.508              
H              4.976               26.441              40.507              
H              5.187               29.125              41.455              
H              4.688               28.826              39.929              
H              3.299               28.019              42.307              
H              2.573               29.981              40.318              
H              1.64                29.576              41.596              
H              3.063               30.34               41.834              
H              3.026               26.404              40.607              
H              1.617               27.196              40.843              
H              2.558               27.568              39.561              
N              6.308               27.199              38.528              
C              7.205               27.386              37.397              
C              6.585               28.533              36.606              
O              5.375               28.534              36.349              
C              7.263               26.127              36.532              
S              7.934               24.626              37.327              
H              5.308               26.906              38.418              
H              8.08                27.681              37.732              
H              6.33                25.918              36.219              
H              7.831               26.328              35.725              
N              7.402               29.511              36.224              
C              6.893               30.661              35.494              
C              7.631               30.878              34.182              
O              8.743               30.4                33.991              
C              6.992               31.918              36.375              
C              8.371               32.542              36.422              
C              8.776               33.454              35.446              
C              9.284               32.201              37.424              
C              10.044              34.012              35.467              
C              10.567              32.754              37.452              
C              10.936              33.659              36.475              
O              12.187              34.236              36.506              
H              8.393               29.383              36.484              
H              5.917               30.496              35.281              
H              6.353               32.597              36.019              
H              6.732               31.665              37.305              
H              8.137               33.709              34.717              
H              9.016               31.553              38.132              
H              10.32               34.668              34.762              
H              11.206              32.495              38.171              
H              12.857              33.583              36.158              
N              6.995               31.622              33.287              
C              7.548               31.926              31.974              
C              6.698               31.238              30.9                
C              7.341               31.051              29.536              
C              6.292               30.696              28.471              
C              5.33                29.582              28.901              
N              5.978               28.261              29.125              
H              6.06                31.973              33.605              
H              8.5                 31.695              31.961              
H              6.434               30.329              31.25               
H              5.855               31.781              30.779              
H              7.793               31.898              29.264              
H              8.008               30.311              29.582              
H              5.754               31.516              28.269              
H              6.767               30.399              27.642              
H              4.866               29.873              29.754              
H              4.616               29.484              28.188              
H              5.488               27.559              28.608              
H              6.928               28.301              28.817              
H              5.951               28.039              30.099              
C              11.419              28.159              41.17               
S              11.975              26.504              40.659              
H              12.217              28.667              41.491              
H              10.769              28.047              41.921              
H              7.44172             33.0082             31.8957             
H              10.9438             28.7306             40.395              
