207
1.xyz
C              40.489              19.953              0.441               
C              41.716              19.182              0.057               
O              42.684              19.106              0.81                
C              40.335              21.218              -0.421              
C              41.36               22.285              -0.162              
C              42.711              22.064              -0.4                
C              40.957              23.547              0.262               
C              43.642              23.087              -0.224              
C              41.877              24.569              0.437               
C              43.22               24.34               0.193               
H              39.7                19.348              0.294               
H              40.409              20.943              -1.371              
H              39.439              21.599              -0.234              
H              43.024              21.169              -0.701              
H              39.986              23.718              0.442               
H              44.615              22.906              -0.401              
H              41.56               25.481              0.745               
H              43.888              25.074              0.315               
N              41.649              18.582              -1.115              
C              42.752              17.803              -1.614              
C              43.321              18.519              -2.808              
O              42.639              19.318              -3.452              
C              42.265              16.416              -2.019              
O              41.702              15.753              -0.905              
H              40.756              18.719              -1.628              
H              43.457              17.764              -0.908              
H              41.574              16.511              -2.725              
H              43.037              15.89               -2.354              
H              41.183              16.406              -0.354              
N              44.584              18.244              -3.09               
C              45.23               18.853              -4.226              
C              44.331              18.612              -5.422              
O              43.781              17.519              -5.587              
C              46.595              18.215              -4.467              
C              47.295              18.756              -5.694              
C              48.706              18.215              -5.811              
C              49.448              18.88               -6.956              
N              50.852              18.391              -7.047              
H              45.045              17.579              -2.445              
H              45.311              19.832              -4.077              
H              47.167              18.393              -3.672              
H              46.464              17.234              -4.583              
H              46.779              18.492              -6.511              
H              47.335              19.755              -5.637              
H              49.195              18.4                -4.966              
H              48.666              17.238              -5.984              
H              48.973              18.677              -7.814              
H              49.454              19.871              -6.81               
H              51.395              19.041              -7.577              
H              51.233              18.307              -6.127              
H              50.863              17.499              -7.498              
N              44.163              19.641              -6.238              
C              43.328              19.513              -7.412              
C              41.92               20.012              -7.176              
O              41.198              20.306              -8.123              
H              44.661              20.504              -5.97               
H              43.743              20.033              -8.18               
H              43.294              18.539              -7.698              
N              41.517              20.109              -5.915              
C              40.176              20.581              -5.621              
C              39.972              21.993              -6.119              
O              40.822              22.867              -5.936              
C              39.896              20.521              -4.126              
C              39.55               19.131              -3.669              
O              39.41               18.252              -4.544              
O              39.413              18.919              -2.452              
H              42.205              19.834              -5.205              
H              39.533              19.989              -6.128              
H              40.712              20.825              -3.648              
H              39.133              21.126              -3.931              
N              38.837              22.207              -6.768              
C              38.503              23.51               -7.291              
C              37.795              24.255              -6.186              
O              36.851              23.761              -5.583              
C              37.6                23.391              -8.51               
C              37.115              24.756              -8.933              
C              38.373              22.733              -9.641              
H              38.226              21.371              -6.863              
H              39.346              23.993              -7.502              
H              36.796              22.863              -8.247              
H              37.869              25.414              -8.889              
H              36.768              24.718              -9.872              
H              36.379              25.06               -8.324              
H              38.097              23.141              -10.512             
H              39.353              22.875              -9.499              
H              38.174              21.753              -9.652              
N              38.271              25.459              -5.927              
C              37.731              26.259              -4.857              
C              37.265              27.598              -5.357              
O              37.911              28.228              -6.189              
C              38.806              26.464              -3.792              
C              39.185              25.112              -3.19               
C              38.316              27.417              -2.723              
C              40.573              25.079              -2.603              
H              39.046              25.766              -6.547              
H              36.913              25.772              -4.521              
H              39.611              26.84               -4.231              
H              38.523              24.888              -2.477              
H              39.123              24.422              -3.911              
H              39.036              27.562              -2.044              
H              38.074              28.294              -3.138              
H              37.511              27.033              -2.272              
H              40.644              25.76               -1.874              
H              40.756              24.17               -2.228              
H              41.243              25.285              -3.317              
N              36.116              28.015              -4.854              
C              35.56               29.295              -5.205              
C              35.867              30.197              -4.048              
O              35.418              29.961              -2.938              
C              34.069              29.167              -5.416              
C              33.729              28.392              -6.639              
H              35.662              27.346              -4.196              
H              36.025              29.638              -6.01               
H              33.659              28.705              -4.624              
H              33.665              30.083              -5.5                
N              33.893              27.027              -6.728              
C              33.352              28.81               -7.866              
C              33.634              26.642              -7.965              
N              33.305              27.704              -8.674              
H              34.163              26.428              -5.977              
H              33.146              29.748              -8.137              
H              33.681              25.706              -8.305              
N              36.655              31.222              -4.322              
C              37.06               32.143              -3.288              
C              35.928              33.104              -3.011              
O              35.503              33.849              -3.886              
C              38.311              32.889              -3.71               
C              38.759              33.803              -2.599              
C              39.404              31.882              -4.055              
H              36.945              31.3                -5.315              
H              37.239              31.622              -2.45               
H              38.079              33.466              -4.488              
H              37.97               34.29               -2.218              
H              39.195              33.268              -1.872              
H              39.417              34.472              -2.952              
H              39.945              31.691              -3.237              
H              38.981              31.039              -4.385              
H              39.991              32.266              -4.766              
N              35.437              33.07               -1.782              
C              34.323              33.916              -1.408              
C              34.725              35.023              -0.462              
O              33.97               35.957              -0.229              
C              33.22               33.084              -0.775              
O              33.745              32.406              0.367               
C              32.7                32.056              -1.771              
H              35.904              32.409              -1.138              
H              33.943              34.338              -2.251              
H              32.471              33.702              -0.459              
H              31.727              32.217              -1.948              
H              33.208              32.13               -2.632              
H              32.818              31.133              -1.399              
H              34.75               32.379              0.329               
N              35.912              34.918              0.103               
C              36.373              35.97               0.976               
C              37.876              35.979              0.985               
O              38.522              34.944              1.115               
C              35.838              35.789              2.388               
C              36.27               36.899              3.309               
C              35.587              36.773              4.636               
N              36.157              37.698              5.599               
C              35.789              37.758              6.872               
N              34.845              36.945              7.328               
N              36.375              38.622              7.689               
H              36.444              34.07               -0.123              
H              36.043              36.852              0.629               
H              34.848              35.782              2.348               
H              36.184              34.933              2.746               
H              37.255              36.85               3.452               
H              36.026              37.778              2.909               
H              34.621              36.978              4.517               
H              35.705              35.841              4.966               
H              36.872              38.331              5.284               
H              34.414              36.269              6.738               
H              34.558              37.011              8.293               
H              37.108              39.214              7.345               
H              36.09               38.685              8.644               
N              38.429              37.167              0.821               
C              39.86               37.328              0.811               
C              40.244              38.242              1.949               
O              39.662              39.313              2.129               
C              40.323              37.94               -0.515              
C              41.8                38.284              -0.455              
C              40.06               36.958              -1.644              
H              37.756              37.951              0.703               
H              40.283              36.436              0.972               
H              39.83               38.796              -0.645              
H              42.338              37.444              -0.376              
H              42.066              38.77               -1.288              
H              41.977              38.867              0.339               
H              40.391              37.346              -2.504              
H              40.539              36.101              -1.456              
H              39.077              36.785              -1.711              
N              41.203              37.791              2.74                
C              41.704              38.573              3.848               
C              41.232              38.016              5.185               
C              39.747              38.108              5.434               
C              39.249              39.532              5.514               
O              40.064              40.446              5.766               
O              38.031              39.728              5.337               
H              41.557              36.842              2.498               
H              41.451              39.519              3.738               
H              41.484              37.058              5.216               
H              41.69               38.525              5.901               
H              39.277              37.671              4.686               
H              39.546              37.675              6.296               
H              40.521              20.175              1.4666              
H              42.7726             38.4631             3.79414             
