378
2.xyz
C              43.192              38.42               3.773               
O              43.69               37.363              3.4                 
N              43.913              39.47               4.111               
C              45.35               39.363              4.093               
C              45.696              38.429              5.233               
O              44.886              38.214              6.136               
C              45.989              40.731              4.34                
C              45.64               41.391              5.672               
C              46.472              40.882              6.837               
O              47.463              40.192              6.662               
O              46.071              41.243              8.033               
H              43.391              40.312              4.37                
H              45.657              38.975              3.238               
H              46.972              40.613              4.318               
H              45.687              41.339              3.621               
H              45.806              42.358              5.587               
H              44.696              41.196              5.874               
N              46.878              37.838              5.192               
C              47.247              37.012              6.315               
C              47.416              35.538              6.103               
O              47.733              34.829              7.05                
H              47.446              38.007              4.37                
H              48.127              37.394              6.731               
H              46.55               37.163              7.079               
N              47.183              35.063              4.888               
C              47.4                33.66               4.62                
C              46.175              32.803              4.501               
O              46.281              31.616              4.209               
H              46.853              35.747              4.197               
H              47.96               33.57               3.754               
H              48.013              33.272              5.358               
N              45.011              33.401              4.712               
C              43.785              32.646              4.636               
C              42.71               33.309              3.834               
O              42.494              34.514              3.915               
C              43.227              32.393              6.022               
C              44.074              31.529              6.824               
C              45.221              31.874              7.476               
C              43.861              30.147              7.082               
N              45.733              30.786              8.129               
C              44.916              29.709              7.904               
C              42.876              29.229              6.697               
C              45.015              28.392              8.354               
C              42.973              27.924              7.141               
C              44.036              27.516              7.963               
H              45.065              34.409              4.925               
H              44.002              31.752              4.189               
H              43.137              33.267              6.491               
H              42.334              31.96               5.93                
H              45.628              32.786              7.477               
H              46.566              30.774              8.681               
H              42.117              29.509              6.114               
H              45.78               28.113              8.94                
H              42.278              27.264              6.873               
H              44.07               26.563              8.265               
N              42.036              32.489              3.054               
C              40.924              32.955              2.272               
C              39.794              32.061              2.658               
O              39.987              30.995              3.245               
C              41.147              32.759              0.794               
C              42.163              33.62               0.209               
C              42.81               34.673              0.795               
C              42.644              33.538              -1.124              
N              43.667              35.252              -0.108              
C              43.582              34.575              -1.295              
C              42.369              32.687              -2.198              
C              44.247              34.785              -2.498              
C              43.027              32.892              -3.389              
C              43.957              33.934              -3.533              
H              42.373              31.505              3.057               
H              40.705              33.874              2.564               
H              41.421              31.805              0.635               
H              40.281              32.931              0.313               
H              42.68               34.975              1.735               
H              44.257              36.038              0.07                
H              41.709              31.944              -2.105              
H              44.909              35.533              -2.591              
H              42.841              32.292              -4.163              
H              44.414              34.049              -4.416              
N              38.6                32.492              2.322               
C              37.471              31.664              2.597               
C              36.898              31.354              1.24                
O              36.966              32.156              0.311               
C              36.457              32.382              3.465               
C              35.426              31.429              3.989               
C              34.411              32.111              4.85                
O              34.2                33.322              4.655               
O              33.822              31.421              5.703               
H              38.563              33.415              1.875               
H              37.749              30.829              3.042               
H              36.932              32.765              4.226               
H              36.005              33.046              2.912               
H              34.952              31.029              3.224               
H              35.878              30.748              4.539               
N              36.342              30.173              1.111               
C              35.79               29.838              -0.168              
C              35.037              28.561              -0.028              
O              34.828              28.041              1.065               
H              36.341              29.573              1.932               
H              35.174              30.566              -0.474              
H              36.526              29.729              -0.839              
N              34.642              28.039              -1.168              
C              33.891              26.826              -1.165              
C              34.482              25.875              -2.152              
O              35.141              26.257              -3.114              
C              32.442              27.081              -1.564              
O              32.403              27.534              -2.92               
C              31.834              28.148              -0.681              
H              34.913              28.563              -2.015              
H              33.941              26.412              -0.248              
H              31.92               26.206              -1.508              
H              30.856              27.967              -0.545              
H              32.29               28.156              0.214               
H              31.941              29.051              -1.108              
H              33.125              28.216              -3.083              
N              34.257              24.613              -1.875              
C              34.688              23.573              -2.757              
C              33.546              22.603              -2.699              
O              33.186              22.128              -1.626              
C              35.945              22.883              -2.281              
C              36.208              21.626              -3.032              
N              36.683              21.614              -4.324              
C              36.205              20.339              -2.618              
C              36.963              20.371              -4.673              
N              36.682              19.579              -3.655              
H              33.75               24.444              -0.979              
H              34.755              23.927              -3.67               
H              36.728              23.495              -2.404              
H              35.853              22.657              -1.309              
H              36.797              22.42               -4.905              
H              35.911              20.003              -1.727              
H              37.324              20.08               -5.555              
N              32.979              22.315              -3.858              
C              31.849              21.424              -3.918              
C              30.839              21.887              -2.887              
O              30.523              23.071              -2.852              
C              32.311              19.991              -3.693              
C              33.062              19.466              -4.885              
H              33.406              22.771              -4.683              
H              31.423              21.533              -4.813              
H              32.91               19.974              -2.902              
H              31.511              19.423              -3.54               
O              33.271              20.201              -5.848              
N              33.473              18.212              -4.84               
H              33.27               17.654              -4.028              
H              33.98               17.815              -5.601              
N              30.347              20.991              -2.044              
C              29.346              21.402              -1.077              
C              29.869              21.99               0.213               
O              29.089              22.295              1.108               
H              30.716              20.04               -2.133              
H              28.713              22.083              -1.523              
H              28.745              20.594              -0.857              
N              31.177              22.174              0.318               
C              31.74               22.695              1.55                
C              32.269              24.109              1.462               
O              32.646              24.596              0.398               
C              32.822              21.744              2.049               
C              32.244              20.383              2.382               
C              33.286              19.387              2.826               
N              34.218              19.053              1.755               
C              35.44               19.559              1.649               
N              35.878              20.424              2.551               
N              36.226              19.201              0.644               
H              31.73               21.926              -0.513              
H              31.015              22.664              2.276               
H              33.492              21.631              1.336               
H              33.217              22.122              2.868               
H              31.568              20.481              3.12                
H              31.781              20.012              1.57                
H              33.793              19.782              3.59                
H              32.819              18.556              3.125               
H              33.915              18.399              1.053               
H              35.317              20.695              3.328               
H              36.802              20.819              2.452               
H              35.897              18.529              -0.026              
H              37.138              19.593              0.551               
N              32.275              24.769              2.608               
C              32.745              26.134              2.694               
C              33.717              26.224              3.837               
O              33.67               25.442              4.782               
C              31.612              27.117              3.014               
O              31.068              26.803              4.3                 
C              30.517              27.028              1.988               
H              31.919              24.229              3.424               
H              33.223              26.363              1.846               
H              31.994              28.061              3.052               
H              30.903              27.076              1.06                
H              30.019              26.16               2.084               
H              29.866              27.786              2.105               
H              31.749              26.976              5.02                
N              34.611              27.187              3.755               
C              35.528              27.339              4.849               
C              36.759              28.094              4.468               
O              37.022              28.365              3.298               
H              34.589              27.76               2.916               
H              35.06               27.818              5.618               
H              35.789              26.418              5.202               
N              37.501              28.441              5.503               
C              38.741              29.149              5.353               
C              39.796              28.145              5.014               
O              39.747              26.995              5.44                
C              39.117              29.833              6.652               
C              38.235              30.95               6.95                
C              37.06               30.91               7.63                
C              38.423              32.296              6.533               
N              36.499              32.162              7.666               
C              37.316              33.033              6.998               
C              39.421              32.956              5.806               
C              37.177              34.398              6.764               
C              39.284              34.314              5.57                
C              38.169              35.021              6.05                
H              37.106              28.156              6.431               
H              38.65               29.775              4.58                
H              39.047              29.174              7.389               
H              40.043              30.178              6.572               
H              36.659              30.094              8.044               
H              35.635              32.4                8.108               
H              40.217              32.463              5.464               
H              36.376              34.895              7.11                
H              39.985              34.792              5.053               
H              38.107              36.002              5.862               
N              40.766              28.59               4.245               
C              41.839              27.714              3.859               
C              43.045              28.578              3.6                 
O              42.927              29.781              3.355               
C              41.443              26.941              2.61                
C              41.096              27.813              1.459               
C              42.084              28.279              0.61                
C              39.781              28.205              1.241               
C              41.776              29.122              -0.436              
C              39.461              29.048              0.194               
C              40.457              29.51               -0.647              
H              40.689              29.579              3.958               
H              42.054              27.142              4.646               
H              42.211              26.373              2.351               
H              40.651              26.39               2.834               
H              43.033              28.001              0.754               
H              39.06               27.871              1.85                
H              42.505              29.457              -1.045              
H              38.497              29.326              0.048               
H              40.237              30.121              -1.407              
N              44.229              27.978              3.643               
C              45.45               28.74               3.411               
C              45.479              29.226              1.981               
O              45.386              28.438              1.044               
C              46.553              27.726              3.707               
C              45.877              26.685              4.56                
C              44.532              26.57               3.935               
H              45.522              29.505              4.055               
H              46.9                27.318              2.862               
H              47.308              28.153              4.204               
H              46.378              25.826              4.515               
H              45.819              27                  5.502               
H              44.556              26.037              3.096               
H              43.86               26.191              4.564               
N              45.614              30.53               1.814               
C              45.631              31.099              0.483               
C              46.819              30.626              -0.332              
O              46.781              30.669              -1.553              
C              45.643              32.617              0.568               
O              46.772              33.048              1.297               
H              45.702              31.082              2.682               
H              44.788              30.804              0.003               
H              45.685              32.992              -0.35               
H              44.82               32.921              1.033               
H              46.753              32.648              2.213               
N              47.872              30.171              0.335               
C              49.036              29.696              -0.392              
C              48.909              28.223              -0.738              
O              49.828              27.625              -1.292              
C              50.317              29.961              0.403               
C              50.289              29.358              1.786               
H              47.792              30.185              1.358               
H              49.072              30.202              -1.264              
H              51.085              29.571              -0.102              
H              50.434              30.949              0.485               
O              49.228              29.167              2.378               
N              51.472              29.081              2.326               
H              52.313              29.278              1.824               
H              51.521              28.674              3.24                
N              47.764              27.636              -0.414              
C              47.535              26.235              -0.739              
C              46.78               26.078              -2.031              
O              46.509              24.964              -2.468              
C              46.767              25.546              0.371               
C              47.682              24.953              1.392               
C              48.628              25.742              2.036               
C              47.633              23.597              1.692               
C              49.505              25.194              2.948               
C              48.507              23.039              2.603               
C              49.443              23.845              3.224               
O              50.34               23.308              4.108               
H              47.079              28.236              0.069               
H              48.437              25.785              -0.837              
H              46.187              26.216              0.815               
H              46.224              24.818              -0.027              
H              48.673              26.722              1.833               
H              46.953              23.02               1.241               
H              50.183              25.773              3.409               
H              48.466              22.063              2.813               
H              50.112              22.348              4.269               
N              46.447              27.202              -2.644              
C              45.713              27.17               -3.885              
C              46.452              27.966              -4.926              
O              47.389              28.706              -4.619              
C              44.307              27.754              -3.715              
C              43.583              27.014              -2.612              
C              44.391              29.242              -3.406              
H              46.75               28.069              -2.169              
H              45.66               26.216              -4.197              
H              43.806              27.59               -4.556              
H              44.218              26.395              -2.146              
H              43.216              27.669              -1.949              
H              42.829              26.481              -3                  
H              44.852              29.71               -4.16               
H              43.467              29.609              -3.297              
H              44.908              29.375              -2.561              
N              46.022              27.799              -6.164              
C              46.617              28.493              -7.28               
C              45.502              28.863              -8.218              
O              44.526              28.132              -8.347              
C              47.595              27.582              -8.014              
C              48.791              27.187              -7.195              
C              49.694              28.382              -6.973              
N              50.918              27.972              -6.307              
C              51.032              27.782              -5                  
N              49.994              27.978              -4.196              
N              52.186              27.368              -4.502              
H              45.225              27.13               -6.26               
H              47.057              29.325              -6.952              
H              47.106              26.754              -8.28               
H              47.914              28.062              -8.828              
H              48.498              26.851              -6.306              
H              49.314              26.49               -7.674              
H              49.912              28.774              -7.856              
H              49.21               29.035              -6.405              
H              51.738              27.821              -6.876              
H              49.108              28.251              -4.562              
H              50.101              27.848              -3.204              
H              52.96               27.181              -5.11               
H              52.29               27.239              -3.514              
N              45.646              30.006              -8.867              
C              44.65               30.449              -9.818              
C              44.626              29.457              -10.969             
O              45.656              28.907              -11.351             
C              45.001              31.841              -10.335             
C              44.834              32.94               -9.305              
C              45.6                32.664              -8.033              
O              46.801              32.336              -8.128              
O              45.005              32.781              -6.945              
H              46.506              30.536              -8.64               
H              43.752              30.481              -9.386              
H              45.947              31.829              -10.61              
H              44.4                32.042              -11.088             
H              45.181              33.777              -9.687              
H              43.881              33.004              -9.072              
N              43.44               29.226              -11.512             
C              43.285              28.302              -12.622             
C              43.463              29.043              -13.939             
O              44.241              28.556              -14.786             
C              41.9                27.64               -12.586             
C              41.741              26.872              -11.272             
C              41.732              26.713              -13.782             
C              40.401              26.207              -11.097             
O              42.822              30.102              -14.103             
H              42.652              29.75               -11.085             
H              44.042              27.649              -12.557             
H              41.216              28.355              -12.608             
H              42.461              26.176              -11.226             
H              41.884              27.517              -10.517             
H              40.823              26.301              -13.76              
H              41.84               27.235              -14.626             
H              42.423              25.994              -13.746             
H              40.254              25.55               -11.837             
H              40.377              25.729              -10.219             
H              39.679              26.899              -11.119             
H              42.1534             38.5268             3.82535             
