177
1.xyz
C              2.573               1.171               6.179               
C              3.33                2.487               6.047               
O              3.956               2.753               5.022               
C              3.532               0.061               6.612               
C              2.944               -0.88               7.65                
C              3.907               -1.175              8.785               
H              1.856               1.297               6.873               
H              3.783               -0.479              5.808               
H              4.354               0.48                7.001               
H              2.12                -0.462              8.033               
H              2.704               -1.742              7.203               
O              3.649               -0.83               9.938               
N              5.024               -1.817              8.462               
H              5.723               -2.037              9.167               
H              5.171               -2.089              7.491               
N              3.267               3.307               7.089               
C              3.948               4.594               7.086               
C              5.436               4.429               7.377               
O              5.823               3.676               8.271               
C              3.337               5.556               8.122               
C              3.398               4.948               9.515               
C              4.047               6.901               8.087               
H              2.703               2.958               7.887               
H              3.856               4.997               6.167               
H              2.375               5.672               7.896               
H              4.086               5.428               10.06               
H              2.505               5.034               9.957               
H              3.643               3.981               9.447               
H              3.821               7.415               8.914               
H              5.035               6.752               8.043               
H              3.748               7.412               7.281               
N              6.264               5.136               6.617               
C              7.71                5.068               6.794               
C              8.224               6.283               7.561               
O              7.496               7.256               7.757               
C              8.401               4.958               5.443               
H              5.802               5.729               5.901               
H              7.935               4.239               7.32                
H              8.235               5.79                4.914               
H              9.385               4.841               5.579               
H              8.039               4.17                4.945               
N              9.493               6.246               8.004               
C              10.1                7.353               8.75                
C              10.333              8.577               7.872               
O              10.408              9.703               8.364               
C              11.433              6.774               9.227               
C              11.754              5.702               8.244               
C              10.433              5.127               7.811               
H              9.534               7.592               9.554               
H              12.145              7.483               9.232               
H              11.344              6.399               10.154              
H              12.254              6.082               7.455               
H              12.33               4.993               8.669               
H              10.452              4.847               6.851               
H              10.169              4.345               8.379               
N              10.443              8.348               6.568               
C              10.665              9.429               5.617               
C              9.624               10.529              5.798               
O              9.905               11.707              5.577               
C              10.618              8.892               4.185               
C              10.74               9.99                3.148               
H              10.358              7.35                6.292               
H              11.56               9.835               5.829               
H              11.373              8.254               4.064               
H              9.748               8.424               4.054               
O              11.036              11.139              3.474               
N              10.511              9.639               1.887               
H              10.267              8.693               1.668               
H              10.581              10.318              1.157               
N              8.421               10.136              6.204               
C              7.355               11.099              6.412               
C              6.114               10.799              5.589               
O              5.078               11.44               5.769               
H              8.319               9.118               6.352               
H              7.104               11.117              7.397               
H              7.692               12.03               6.179               
N              6.212               9.828               4.683               
C              5.081               9.462               3.838               
C              4.835               7.957               3.865               
O              5.726               7.175               4.196               
C              5.317               9.924               2.4                 
C              6.434               9.171               1.7                 
C              7.51                10.116              1.197               
N              7.839               11.144              2.181               
C              8.385               12.317              1.872               
N              8.678               12.604              0.611               
N              8.64                13.203              2.825               
H              7.139               9.368               4.634               
H              4.255               9.928               4.18                
H              4.479               9.783               1.886               
H              5.557               10.888              2.418               
H              6.855               8.531               2.338               
H              6.063               8.678               0.917               
H              8.326               9.58                0.997               
H              7.175               10.552              0.365               
H              7.642               10.954              3.147               
H              8.479               11.962              -0.125              
H              9.109               13.488              0.39                
H              8.4                 12.99               3.776               
H              9.066               14.076              2.601               
N              3.616               7.565               3.515               
C              3.235               6.158               3.494               
C              3.557               5.521               2.152               
O              3.493               6.175               1.111               
C              1.737               5.968               3.781               
O              0.98                7.01                3.154               
C              1.467               5.968               5.277               
H              2.966               8.337               3.261               
H              3.757               5.675               4.209               
H              1.436               5.074               3.386               
H              2.27                5.623               5.768               
H              1.268               6.901               5.587               
H              0.681               5.38                5.481               
H              0.838               6.802               2.18                
N              3.905               4.242               2.181               
C              4.237               3.518               0.965               
C              3.301               2.329               0.762               
O              2.351               2.138               1.522               
C              5.689               3.044               1.018               
C              6.063               2.399               2.322               
C              6.254               3.165               3.461               
C              6.227               1.026               2.406               
C              6.6                 2.572               4.66                
C              6.573               0.428               3.602               
C              6.76                1.202               4.73                
H              3.919               3.814               3.127               
H              4.078               4.145               0.193               
H              5.817               2.378               0.299               
H              6.27                3.832               0.889               
H              6.14                4.155               3.418               
H              6.092               0.462               1.589               
H              6.735               3.145               5.479               
H              6.69                -0.579              3.645               
H              7.011               0.774               5.6                 
N              3.576               1.534               -0.266              
C              2.762               0.362               -0.57               
C              3.625               -0.886              -0.653              
O              4.492               -0.998              -1.519              
C              2.005               0.557               -1.885              
C              0.567               0.949               -1.7                
C              0.213               2.279               -1.535              
C              -0.43               -0.013              -1.691              
C              -1.11               2.641               -1.365              
C              -1.754              0.344               -1.521              
C              -2.095              1.673               -1.358              
H              4.406               1.814               -0.825              
H              2.134               0.232               0.205               
H              2.456               1.276               -2.39               
H              2.028               -0.3                -2.377              
H              0.918               2.984               -1.54               
H              -0.187              -0.978              -1.81               
H              -1.349              3.614               -1.245              
H              -2.471              -0.374              -1.515              
H              -3.053              1.937               -1.235              
N              3.379               -1.822              0.252               
C              4.129               -3.067              0.288               
C              3.608               -4.046              -0.759              
O              2.401               -4.216              -0.917              
C              4.056               -3.712              1.689               
C              4.748               -2.816              2.716               
C              4.685               -5.101              1.694               
C              3.878               -2.473              3.905               
H              2.617               -1.592              0.922               
H              5.071               -2.84               0.023               
H              3.099               -3.788              1.939               
H              5.57                -3.281              3.038               
H              5.017               -1.968              2.261               
H              4.587               -5.507              2.601               
H              4.225               -5.676              1.02                
H              5.654               -5.028              1.464               
H              3.611               -3.314              4.374               
H              4.39                -1.888              4.533               
H              3.061               -1.991              3.59                
N              4.529               -4.685              -1.467              
H              5.511               -4.441              -1.228              
H              4.28059             -5.35598            -2.18169            
H              2.10205             0.916966            5.26259             
