297
2.xyz
C              30.658              53.451              31.514              
O              30.543              54.08               30.455              
N              31.804              52.899              31.904              
C              33.025              53.152              31.14               
C              32.898              52.569              29.733              
O              33.22               53.23               28.743              
C              34.246              52.605              31.87               
H              31.757              52.313              32.741              
H              33.16               54.144              31.064              
H              33.956              52.157              32.715              
H              34.714              51.943              31.286              
H              34.868              53.356              32.087              
N              32.401              51.336              29.638              
C              32.157              50.735              28.319              
C              31.171              51.548              27.473              
O              31.384              51.726              26.283              
C              31.704              49.28               28.478              
O              32.757              48.567              29.117              
C              31.43               48.627              27.122              
H              32.211              50.862              30.528              
H              33.038              50.692              27.823              
H              30.887              49.254              29.079              
H              31.112              47.688              27.26               
H              30.727              49.147              26.635              
H              32.271              48.616              26.578              
H              32.879              47.661              28.694              
N              30.094              52.045              28.07               
C              29.126              52.849              27.305              
C              29.786              54.085              26.729              
O              29.55               54.449              25.574              
C              27.923              53.273              28.148              
C              26.909              52.181              28.394              
C              25.555              52.8                28.701              
N              25.646              53.961              29.59               
C              25.785              53.899              30.915              
N              25.87               52.726              31.555              
N              25.859              55.028              31.612              
H              29.995              51.832              29.069              
H              28.771              52.284              26.551              
H              28.262              53.591              29.033              
H              27.464              54.025              27.677              
H              26.815              51.62               27.584              
H              27.183              51.637              29.175              
H              25.139              53.082              27.837              
H              24.985              52.101              29.133              
H              25.6                54.878              29.168              
H              25.849              51.877              31.031              
H              25.955              52.708              32.548              
H              25.83               55.911              31.143              
H              25.945              54.996              32.609              
N              30.633              54.726              27.531              
C              31.277              55.977              27.096              
C              32.224              55.723              25.944              
O              32.195              56.443              24.94               
C              32.049              56.639              28.25               
C              31.134              57.173              29.345              
C              30.089              58.151              28.806              
C              28.716              57.822              29.359              
N              27.676              58.795              28.934              
H              30.795              54.29               28.448              
H              30.559              56.617              26.799              
H              32.652              55.96               28.648              
H              32.571              57.397              27.877              
H              30.658              56.403              29.778              
H              31.688              57.644              30.035              
H              30.338              59.067              29.088              
H              30.064              58.077              27.819              
H              28.451              56.9                29.048              
H              28.764              57.811              30.366              
H              27.144              59.083              29.731              
H              28.116              59.592              28.52               
H              27.07               58.363              28.266              
N              33.05               54.692              26.067              
C              34.075              54.433              25.059              
C              33.443              53.792              23.822              
O              33.784              54.136              22.68               
C              35.274              53.61               25.63               
C              36.213              53.165              24.523              
C              36.021              54.431              26.673              
H              32.911              54.109              26.907              
H              34.472              55.311              24.782              
H              34.893              52.789              26.046              
H              35.994              52.227              24.253              
H              36.11               53.769              23.732              
H              37.158              53.204              24.849              
H              36.562              55.134              26.213              
H              35.361              54.862              27.288              
H              36.625              53.829              27.195              
N              32.513              52.871              24.039              
C              31.808              52.235              22.911              
C              30.922              53.219              22.154              
O              30.794              53.124              20.937              
C              30.982              51.034              23.383              
H              32.329              52.643              25.025              
H              32.499              51.864              22.273              
H              30.118              51.013              22.885              
H              31.492              50.194              23.208              
H              30.804              51.121              24.361              
N              30.345              54.18               22.871              
C              29.468              55.173              22.255              
C              30.236              56.135              21.363              
O              29.664              56.718              20.437              
H              30.568              54.163              23.884              
H              28.762              54.7                21.707              
H              28.994              55.695              22.98               
N              31.542              56.279              21.621              
C              32.38               57.181              20.826              
C              32.77               56.539              19.495              
O              33.136              57.23               18.548              
C              33.679              57.531              21.582              
C              33.483              58.511              22.719              
S              33.167              60.165              22.116              
C              34.663              60.502              21.189              
H              31.896              55.713              22.409              
H              31.845              58.009              20.626              
H              34.073              56.68               21.951              
H              34.335              57.923              20.925              
H              32.712              58.181              23.304              
H              34.315              58.491              23.315              
H              35.301              61.022              21.759              
H              35.09               59.639              20.916              
H              34.438              61.034              20.372              
N              32.67               55.217              19.43               
C              33.213              54.487              18.29               
C              32.433              54.757              17.019              
O              31.207              54.94               17.045              
C              33.264              53.004              18.574              
H              32.193              54.769              20.226              
H              34.173              54.777              18.15               
H              32.48               52.739              19.139              
H              33.236              52.492              17.714              
H              34.11               52.78               19.061              
N              33.169              54.774              15.913              
C              32.603              54.946              14.585              
C              33.037              53.738              13.774              
O              33.95               53.83               12.965              
C              33.106              56.246              13.944              
C              32.657              57.519              14.672              
C              31.195              57.837              14.379              
C              30.747              59.141              15.031              
N              29.753              59.873              14.169              
H              34.198              54.652              16.083              
H              31.614              54.953              14.649              
H              34.102              56.228              13.939              
H              32.763              56.287              13.009              
H              32.769              57.384              15.654              
H              33.223              58.281              14.367              
H              31.076              57.919              13.393              
H              30.628              57.097              14.731              
H              30.322              58.937              15.912              
H              31.544              59.727              15.173              
H              29.803              59.512              13.241              
H              28.839              59.734              14.541              
H              29.978              60.844              14.17               
N              32.394              52.581              14.021              
C              32.902              51.354              13.41               
C              32.727              51.25               11.91               
O              31.861              51.907              11.325              
C              32.069              50.245              14.056              
C              31.267              50.882              15.114              
C              31.216              52.345              14.873              
H              33.89               51.217              13.667              
H              31.477              49.802              13.361              
H              32.676              49.527              14.435              
H              30.322              50.485              15.134              
H              31.668              50.68               16.036              
H              30.381              52.618              14.393              
H              31.292              52.869              15.724              
N              33.56               50.405              11.312              
C              33.265              49.872              9.991               
C              32.68               48.479              10.145              
O              33.092              47.708              11.015              
C              34.514              49.815              9.118               
C              35.041              51.192              8.765               
H              34.409              50.168              11.853              
H              32.554              50.448              9.589               
H              35.224              49.321              9.613               
H              34.288              49.336              8.274               
O              34.305              52.183              8.765               
N              36.336              51.26               8.48                
H              36.903              50.438              8.499               
H              36.75               52.142              8.243               
N              31.714              48.174              9.303               
C              31.128              46.855              9.309               
C              31.412              46.247              7.96                
O              31.139              46.867              6.935               
C              29.628              46.953              9.566               
C              28.922              45.638              9.52                
S              27.258              45.783              10.136              
C              26.644              47.256              9.303               
H              31.425              48.934              8.664               
H              31.585              46.308              10.002              
H              29.484              47.373              10.474              
H              29.223              47.569              8.874               
H              28.925              45.291              8.557               
H              29.454              44.953              10.064              
H              27.213              47.445              8.503               
H              25.699              47.104              9.014               
H              26.681              48.032              9.932               
N              31.975              45.042              7.975               
C              32.345              44.347              6.756               
C              31.526              43.071              6.731               
O              31.632              42.234              7.637               
C              33.865              44.01               6.725               
C              34.71               45.266              6.966               
C              34.278              43.363              5.413               
C              35.311              45.363              8.366               
H              32.124              44.648              8.929               
H              32.025              44.906              6.004               
H              34.045              43.368              7.462               
H              35.453              45.282              6.298               
H              34.131              46.068              6.815               
H              35.244              43.11               5.454               
H              33.727              42.544              5.256               
H              34.136              44.007              4.663               
H              35.902              44.576              8.521               
H              35.841              46.205              8.434               
H              34.573              45.371              9.036               
N              30.717              42.936              5.682               
C              29.808              41.793              5.56                
C              30.163              41.003              4.31                
O              30.345              41.561              3.231               
C              28.321              42.225              5.525               
C              27.967              42.972              6.822               
C              27.403              41.023              5.279               
C              26.555              43.528              6.835               
H              30.784              43.69               4.976               
H              30                  41.201              6.34                
H              28.204              42.852              4.768               
H              28.075              42.342              7.586               
H              28.61               43.727              6.93                
H              26.46               41.339              5.209               
H              27.671              40.573              4.431               
H              27.488              40.384              6.039               
H              25.905              42.777              6.733               
H              26.394              43.997              7.701               
H              26.448              44.171              6.079               
N              30.27               39.698              4.466               
C              30.606              38.837              3.339               
C              29.808              37.539              3.42                
O              29.326              37.157              4.492               
C              32.114              38.583              3.281               
O              32.546              37.943              4.449               
H              30.101              39.348              5.424               
H              30.342              39.308              2.494               
H              32.308              38.006              2.494               
H              32.578              39.458              3.19                
H              31.918              38.147              5.203               
N              29.639              36.896              2.27                
C              28.87               35.667              2.176               
C              29.716              34.669              1.404               
O              30.362              35.016              0.388               
C              27.481              35.889              1.476               
C              26.737              34.569              1.299               
C              26.614              36.863              2.278               
H              30.102              37.347              1.451               
H              28.731              35.311              3.093               
H              27.668              36.249              0.568               
H              26.685              34.096              2.178               
H              25.814              34.751              0.963               
H              27.226              33.998              0.641               
H              26.141              36.36               2.999               
H              27.2                37.564              2.681               
H              25.949              37.287              1.666               
N              29.755              33.444              1.908               
C              30.5                32.376              1.246               
C              29.663              31.124              1.44                
O              29.622              30.558              2.527               
C              31.903              32.263              1.845               
C              32.776              31.237              1.147               
H              29.226              33.312              2.788               
H              30.506              32.578              0.28                
H              32.347              33.156              1.778               
H              31.814              32.004              2.806               
O              34.017              31.395              1.058               
N              32.157              30.168              0.68                
H              31.166              30.067              0.788               
H              32.677              29.448              0.212               
N              28.965              30.726              0.381               
C              28.018              29.615              0.46                
C              26.877              29.997              1.387               
O              26.225              31.037              1.197               
H              29.147              31.261              -0.489              
H              27.658              29.418              -0.451              
H              28.483              28.805              0.816               
N              26.668              29.174              2.408               
C              25.626              29.39               3.395               
C              25.113              28.054              3.912               
C              24.332              27.273              2.863               
O              23.666              27.892              2.006               
O              24.375              26.03               2.924               
H              27.322              28.355              2.438               
H              24.896              29.934              2.949               
H              25.894              27.507              4.194               
H              24.514              28.227              4.686               
H              25.9743             29.9702             4.25387             
H              29.8232             53.3568             32.1799             
