203
3.xyz
C              26.111              30.198              4.591               
O              25.318              30.514              5.465               
N              27.407              30.523              4.629               
C              28.004              31.179              5.794               
C              28.107              32.69               5.569               
O              28.725              33.162              4.611               
C              29.398              30.604              6.144               
C              29.971              31.273              7.393               
C              29.33               29.091              6.327               
H              27.942              30.274              3.776               
H              27.402              31.025              6.583               
H              30.011              30.822              5.39                
H              30.676              30.686              7.789               
H              30.37               32.154              7.143               
H              29.239              31.414              8.058               
H              28.648              28.715              5.701               
H              30.226              28.696              6.127               
H              29.073              28.886              7.27                
N              27.461              33.436              6.452               
C              27.511              34.896              6.442               
C              28.477              35.312              7.545               
O              28.422              34.768              8.643               
C              26.119              35.49               6.719               
C              25.104              34.958              5.695               
C              26.196              37.006              6.648               
C              23.639              35.193              6.055               
H              26.911              32.893              7.158               
H              27.931              35.156              5.584               
H              25.829              35.191              7.619               
H              25.29               35.392              4.811               
H              25.25               33.971              5.594               
H              25.298              37.396              6.847               
H              26.858              37.339              7.318               
H              26.482              37.284              5.732               
H              23.479              36.173              6.139               
H              23.063              34.815              5.334               
H              23.441              34.741              6.921               
N              29.377              36.245              7.232               
C              30.327              36.776              8.21                
C              30.093              38.272              8.332               
O              30.034              38.996              7.326               
C              31.795              36.511              7.786               
O              32.041              35.095              7.711               
C              32.776              37.11               8.807               
H              29.345              36.56               6.24                
H              30.144              36.352              9.092               
H              31.943              36.909              6.858               
H              33.702              37.085              8.432               
H              32.518              38.057              8.999               
H              32.743              36.576              9.652               
H              32.116              34.707              8.634               
N              29.96               38.72               9.578               
C              29.842              40.147              9.878               
C              31.002              40.52               10.803              
O              31.08               40.032              11.913              
C              28.487              40.523              10.532              
C              27.29               40.087              9.667               
C              28.449              42.029              10.808              
C              25.943              40.392              10.295              
H              29.947              37.981              10.308              
H              29.996              40.627              9.024               
H              28.426              40.042              11.405              
H              27.353              40.553              8.789               
H              27.359              39.103              9.517               
H              27.606              42.254              11.291              
H              29.234              42.28               11.369              
H              28.482              42.523              9.943               
H              25.864              41.376              10.442              
H              25.217              40.084              9.683               
H              25.871              39.914              11.169              
N              31.892              41.382              10.309              
C              32.975              41.943              11.127              
C              32.657              43.39               11.492              
O              32.112              44.133              10.671              
C              34.287              41.905              10.345              
C              34.735              40.537              9.921               
C              35.961              40.602              9.018               
C              36.46               39.199              8.691               
N              37.661              39.191              7.788               
H              31.756              41.621              9.306               
H              33.054              41.406              11.97               
H              34.173              42.475              9.525               
H              35.001              42.314              10.923              
H              34.967              39.993              10.731              
H              33.996              40.08               9.42                
H              35.714              41.055              8.173               
H              36.682              41.092              9.488               
H              36.698              38.729              9.55                
H              35.717              38.683              8.246               
H              37.852              40.125              7.494               
H              38.442              38.826              8.29                
H              37.467              38.618              6.995               
N              32.958              43.768              12.73               
C              32.894              45.169              13.151              
C              34.281              45.574              13.594              
O              34.81               44.972              14.538              
C              31.902              45.357              14.308              
O              31.852              46.717              14.748              
H              33.239              42.995              13.366              
H              32.644              45.716              12.359              
H              30.994              45.087              14                  
H              32.188              44.785              15.072              
H              32.762              46.999              15.042              
N              34.866              46.567              12.915              
C              36.188              47.08               13.303              
C              36.062              48.491              13.827              
O              35.495              49.342              13.166              
C              37.171              47.026              12.129              
C              37.388              45.607              11.654              
C              38.39               45.502              10.524              
O              38.647              46.516              9.835               
O              38.913              44.384              10.323              
H              34.323              46.932              12.117              
H              36.579              46.484              14.009              
H              36.782              47.535              11.394              
H              38.025              47.375              12.441              
H              37.735              45.076              12.408              
H              36.53               45.253              11.322              
N              36.586              48.727              15.028              
C              36.589              50.088              15.575              
C              37.756              50.26               16.522              
O              38.475              49.301              16.827              
C              35.26               50.437              16.277              
O              35.133              49.797              17.529              
H              36.97               47.911              15.516              
H              36.707              50.725              14.81               
H              35.225              51.427              16.408              
H              34.508              50.151              15.684              
H              35.46               48.855              17.459              
N              37.94               51.487              16.996              
C              39.005              51.771              17.96               
C              38.705              51.1                19.292              
O              39.614              50.843              20.095              
C              39.145              53.285              18.173              
O              37.853              53.822              18.455              
C              39.697              53.937              16.918              
H              37.287              52.202              16.637              
H              39.865              51.397              17.601              
H              39.743              53.45               18.979              
H              39.404              54.895              16.874              
H              40.699              53.902              16.927              
H              39.36               53.454              16.106              
H              37.238              53.691              17.669              
N              37.422              50.811              19.515              
C              36.978              50.167              20.75               
C              37.292              48.675              20.743              
O              37.92               48.156              21.675              
C              35.489              50.422              20.994              
C              34.921              49.63               22.141              
C              35.379              49.825              23.44               
C              33.929              48.684              21.919              
C              34.852              49.084              24.512              
C              33.402              47.943              22.981              
C              33.865              48.145              24.275              
H              36.777              51.08               18.746              
H              37.513              50.573              21.501              
H              35.376              51.381              21.2                
H              35                  50.167              20.175              
H              36.089              50.497              23.624              
H              33.586              48.529              20.995              
H              35.202              49.247              25.437              
H              32.68               47.256              22.796              
H              33.486              47.614              25.032              
N              36.86               47.984              19.686              
C              37.064              46.546              19.605              
C              36.888              46.091              18.171              
O              36.21               46.738              17.376              
C              36.073              45.813              20.52               
C              36.54               44.451              21.004              
C              35.686              43.929              22.161              
C              36.345              44.162              23.523              
N              36.441              45.591              23.907              
H              36.386              48.544              18.961              
H              37.998              46.332              19.902              
H              35.905              46.391              21.319              
H              35.217              45.693              20.014              
H              36.486              43.796              20.247              
H              37.49               44.518              21.314              
H              34.809              44.402              22.151              
H              35.548              42.95               22.042              
H              35.813              43.663              24.224              
H              37.273              43.759              23.501              
H              36.415              45.672              24.904              
H              37.3                45.972              23.565              
H              35.673              46.096              23.512              
N              37.556              45                  17.832              
C              37.291              44.324              16.568              
C              36.571              43.032              16.878              
O              37.063              42.233              17.679              
C              38.588              44.055              15.793              
C              39.333              45.329              15.435              
O              40.552              45.391              15.48               
N              38.582              46.358              15.054              
H              38.259              44.679              18.518              
H              36.662              44.899              16.052              
H              39.18               43.489              16.36               
H              38.356              43.575              14.952              
H              37.587              46.268              15.022              
H              39.013              47.225              14.8                
N              35.389              42.845              16.301              
H              35.059              43.606              15.698              
H              25.7725             29.634              3.75621             
H              34.8658             41.9846             16.4682             
