373
0.xyz
N              9.418               3.399               -6.125              
C              10.894              3.577               -6.217              
C              11.377              4.84                -5.526              
O              12.348              5.458               -5.963              
H              9.204               2.425               -6.138              
H              11.34               2.769               -5.803              
H              11.153              3.601               -7.195              
H              9.092               3.805               -5.275              
H              8.985               3.849               -6.902              
N              10.704              5.219               -4.442              
C              11.071              6.419               -3.691              
C              10.1                6.665               -2.544              
O              10.48               7.184               -1.496              
C              11.109              7.637               -4.61               
O              9.856               7.845               -5.239              
H              9.912               4.601               -4.181              
H              11.986              6.271               -3.297              
H              11.337              8.442               -4.069              
H              11.802              7.49                -5.311              
H              9.235               7.099               -5                  
N              8.843               6.287               -2.749              
C              7.824               6.451               -1.732              
C              7.81                5.236               -0.813              
O              7.892               4.097               -1.274              
C              6.461               6.644               -2.399              
C              5.838               5.362               -2.941              
C              6.495               4.888               -4.223              
H              8.662               5.872               -3.685              
H              8.06                7.252               -1.175              
H              5.827               7.037               -1.729              
H              6.564               7.285               -3.164              
H              5.931               4.646               -2.25               
H              4.869               5.53                -3.12               
O              6.922               5.694               -5.05               
N              6.594               3.575               -4.388              
H              7.01                3.183               -5.229              
H              6.245               2.959               -3.654              
N              7.706               5.481               0.485               
C              7.712               4.402               1.457               
C              6.304               3.913               1.748               
O              5.918               3.763               2.907               
C              8.374               4.824               2.784               
C              8.892               3.604               3.529               
C              9.494               5.827               2.543               
H              7.622               6.483               0.737               
H              8.235               3.631               1.069               
H              7.671               5.238               3.353               
H              9.78                3.814               3.939               
H              8.245               3.351               4.249               
H              8.994               2.84                2.891               
H              9.447               6.546               3.236               
H              10.375              5.358               2.603               
H              9.387               6.228               1.634               
N              5.53                3.66                0.692               
C              4.166               3.164               0.855               
C              3.4                 3.155               -0.47               
O              3.703               3.925               -1.382              
C              3.414               4.021               1.867               
C              3.698               5.491               1.744               
C              3.195               6.222               0.679               
C              4.471               6.142               2.692               
C              3.456               7.574               0.564               
C              4.736               7.493               2.582               
C              4.229               8.21                1.517               
H              5.97                3.841               -0.226              
H              4.236               2.203               1.154               
H              2.445               3.884               1.722               
H              3.686               3.732               2.773               
H              2.637               5.77                -0.013              
H              4.841               5.625               3.467               
H              3.081               8.09                -0.217              
H              5.305               7.953               3.286               
H              4.418               9.19                1.431               
N              2.405               2.272               -0.563              
C              1.573               2.16                -1.761              
C              0.091               2.064               -1.408              
O              -0.287              1.423               -0.431              
C              1.976               0.937               -2.579              
C              2.832               1.277               -3.782              
C              3.983               2.194               -3.427              
O              4.821               1.797               -2.59               
O              4.046               3.31                -3.982              
H              2.274               1.677               0.28                
H              1.725               2.963               -2.353              
H              2.5                 0.346               -1.996              
H              1.155               0.51                -2.906              
H              3.213               0.445               -4.136              
H              2.273               1.744               -4.44               
N              -0.744              2.698               -2.222              
C              -2.179              2.689               -2.013              
C              -2.835              1.52                -2.723              
O              -2.705              1.359               -3.937              
C              -2.771              3.997               -2.514              
C              -2.404              4.327               -3.947              
C              -3.088              3.763               -5.014              
C              -1.365              5.207               -4.228              
C              -2.751              4.065               -6.32               
C              -1.021              5.515               -5.529              
C              -1.717              4.942               -6.573              
O              -1.377              5.247               -7.871              
H              -0.282              3.196               -3.014              
H              -2.356              2.595               -1.023              
H              -3.765              3.939               -2.456              
H              -2.44               4.738               -1.934              
H              -3.841              3.123               -4.836              
H              -0.86               5.624               -3.472              
H              -3.257              3.649               -7.08               
H              -0.269              6.151               -5.715              
H              -0.468              4.883               -8.066              
N              -3.53               0.694               -1.954              
C              -4.223              -0.452              -2.514              
C              -5.727              -0.219              -2.521              
O              -6.49               -1.035              -2.004              
C              -3.887              -1.709              -1.729              
H              -3.534              0.933               -0.945              
H              -3.916              -0.589              -3.463              
H              -4.386              -1.707              -0.863              
H              -4.148              -2.516              -2.26               
H              -2.904              -1.737              -1.545              
N              -6.154              0.899               -3.105              
C              -7.573              1.216               -3.15               
C              -8.167              1.029               -4.515              
O              -7.482              0.698               -5.484              
C              -7.85               2.63                -2.651              
C              -7.622              3.73                -3.674              
C              -6.241              3.695               -4.291              
O              -6.02               2.865               -5.198              
O              -5.384              4.5                 -3.872              
H              -5.415              1.496               -3.506              
H              -8.067              0.633               -2.477              
H              -8.799              2.672               -2.376              
H              -7.247              2.804               -1.887              
H              -8.277              3.615               -4.401              
H              -7.725              4.599               -3.222              
N              -9.465              1.245               -4.569              
C              -10.197             1.096               -5.788              
C              -10.541             2.448               -6.402              
O              -10.728             2.564               -7.614              
C              -11.444             0.243               -5.557              
C              -12.211             0.029               -6.854              
C              -11.045             -1.084              -4.923              
H              -9.896              1.528               -3.661              
H              -9.623              0.597               -6.456              
H              -12.051             0.744               -4.942              
H              -11.566             -0.048              -7.615              
H              -12.75              -0.811              -6.789              
H              -12.822             0.805               -7.013              
H              -11.126             -1.811              -5.604              
H              -10.1               -1.025              -4.603              
H              -11.651             -1.275              -4.151              
N              -10.591             3.471               -5.56               
C              -10.887             4.827               -6.013              
C              -10.211             5.869               -5.115              
O              -9.707              6.88                -5.604              
C              -12.41              5.057               -6.079              
C              -12.799             6.526               -6.144              
O              -12.664             7.128               -7.23               
O              -13.239             7.07                -5.109              
H              -10.405             3.229               -4.566              
H              -10.488             4.93                -6.931              
H              -12.75              4.599               -6.894              
H              -12.813             4.654               -5.264              
N              -10.203             5.623               -3.807              
C              -9.603              6.571               -2.864              
C              -9.091              5.882               -1.6                
O              -9.473              4.76                -1.302              
C              -10.619             7.65                -2.489              
C              -10.954             8.596               -3.631              
C              -11.931             9.681               -3.221              
O              -13.154             9.442               -3.306              
O              -11.472             10.77               -2.815              
H              -10.643             4.734               -3.522              
H              -8.838              7.055               -3.315              
H              -11.45              7.199               -2.222              
H              -10.234             8.186               -1.761              
H              -10.125             9.036               -3.92               
H              -11.373             8.076               -4.351              
N              -8.229              6.579               -0.862              
C              -7.66               6.055               0.384               
C              -7.781              7.11                1.483               
O              -8.478              8.111               1.312               
C              -6.165              5.676               0.216               
C              -5.342              6.928               -0.104              
C              -6.012              4.655               -0.889              
C              -5.584              7.463               -1.5                
H              -7.995              7.52                -1.241              
H              -8.241              5.29                0.657               
H              -5.848              5.309               1.08                
H              -5.572              7.635               0.559               
H              -4.376              6.698               -0.012              
H              -5.05               4.397               -0.981              
H              -6.551              3.841               -0.674              
H              -6.332              5.042               -1.754              
H              -6.549              7.702               -1.6                
H              -5.021              8.275               -1.645              
H              -5.341              6.762               -2.169              
N              -7.107              6.891               2.607               
C              -7.14               7.846               3.713               
C              -5.838              7.802               4.507               
O              -5.234              8.838               4.784               
C              -8.34               7.586               4.657               
C              -8.274              8.483               5.887               
C              -9.651              7.803               3.919               
H              -6.569              6.006               2.631               
H              -7.236              8.77                3.326               
H              -8.271              6.645               4.977               
H              -8.849              9.288               5.743               
H              -8.601              7.978               6.685               
H              -7.329              8.771               6.039               
H              -9.461              8.168               3.007               
H              -10.133             6.931               3.837               
H              -10.215             8.452               4.43                
N              -5.415              6.6                 4.869               
C              -4.183              6.419               5.625               
C              -3.039              6.032               4.695               
O              -3.251              5.37                3.684               
C              -4.372              5.35                6.701               
C              -3.121              5.081               7.519               
C              -3.375              4.115               8.659               
O              -3.559              2.911               8.387               
O              -3.396              4.565               9.825               
H              -6.026              5.813               4.573               
H              -3.95               7.271               6.105               
H              -5.07               5.666               7.317               
H              -4.621              4.513               6.252               
H              -2.449              4.676               6.93                
H              -2.818              5.929               7.91                
N              -1.833              6.481               5.013               
C              -0.673              6.161               4.187               
C              0.63                6.168               4.998               
O              1.287               7.204               5.102               
C              -0.567              7.16                3.036               
C              -0.678              8.612               3.475               
C              -0.531              9.563               2.298               
C              -0.901              10.987              2.682               
N              -2.342              11.109              3.037               
H              -1.787              7.058               5.868               
H              -0.796              5.239               3.791               
H              0.316               7.034               2.592               
H              -1.302              6.97                2.389               
H              -1.573              8.757               3.898               
H              0.041               8.808               4.142               
H              0.416               9.553               1.992               
H              -1.134              9.266               1.565               
H              -0.344              11.267              3.468               
H              -0.7                11.595              1.909               
H              -2.66               12.03               2.817               
H              -2.869              10.439              2.516               
H              -2.458              10.939              4.015               
N              1.005               5.025               5.572               
C              2.231               4.947               6.372               
C              2.783               3.525               6.394               
O              2.458               2.754               7.297               
C              1.956               5.413               7.8                 
C              3.183               5.385               8.695               
C              2.805               5.548               10.158              
N              2.235               6.862               10.434              
C              1.964               7.304               11.657              
N              2.209               6.537               12.711              
N              1.446               8.512               11.827              
H              0.376               4.223               5.409               
H              2.922               5.555               5.963               
H              1.621               6.348               7.764               
H              1.27                4.814               8.198               
H              3.652               4.512               8.59                
H              3.793               6.133               8.447               
H              2.137               4.844               10.385              
H              3.63                5.424               10.705              
H              2.037               7.465               9.657               
H              2.615               5.633               12.61               
H              1.982               6.874               13.634              
H              1.279               9.097               11.029              
H              1.224               8.842               12.742              
N              3.612               3.162               5.417               
C              4.127               1.808               5.401               
C              5.477               1.643               4.738               
O              6.39                2.446               4.932               
H              3.833               3.882               4.728               
H              4.184               1.46                6.365               
H              3.448               1.197               4.932               
N              5.583               0.573               3.953               
C              6.801               0.22                3.25                
C              6.583               0.3                 1.732               
O              6.219               1.341               1.22                
C              7.179               -1.181              3.692               
C              7.602               -1.257              5.143               
C              7.965               -2.675              5.512               
C              8.438               -2.771              6.954               
N              9.694               -2.003              7.182               
H              4.701               0.005               3.889               
H              7.529               0.867               3.498               
H              6.39                -1.776              3.563               
H              7.938               -1.496              3.126               
H              8.396               -0.67               5.283               
H              6.848               -0.951              5.721               
H              7.163               -3.256              5.405               
H              8.7                 -2.99               4.919               
H              7.719               -2.412              7.557               
H              8.597               -3.736              7.181               
H              10.41               -2.353              6.579               
H              9.532               -1.037              6.984               
H              9.977               -2.107              8.135               
N              6.809               -0.786              1.005               
C              6.574               -0.772              -0.413              
C              5.163               -1.198              -0.652              
O              4.442               -0.646              -1.481              
H              7.154               -1.604              1.534               
H              6.717               0.151               -0.772              
H              7.203               -1.404              -0.867              
N              4.796               -2.213              0.104               
C              3.46                -2.762              0.087               
C              3.008               -3.136              1.51                
O              1.943               -3.723              1.687               
C              3.405               -3.976              -0.838              
C              3.683               -3.636              -2.296              
C              5.153               -3.803              -2.641              
C              5.39                -3.654              -4.136              
N              4.862               -2.363              -4.656              
H              5.56                -2.589              0.721               
H              2.819               -2.076              -0.274              
H              4.088               -4.633              -0.535              
H              2.495               -4.375              -0.778              
H              3.142               -4.243              -2.88               
H              3.415               -2.687              -2.466              
H              5.677               -3.104              -2.166              
H              5.45                -4.71               -2.362              
H              6.377               -3.702              -4.315              
H              4.937               -4.412              -4.614              
H              4.257               -1.954              -3.974              
H              5.624               -1.744              -4.842              
H              4.352               -2.529              -5.5                
N              3.813               -2.772              2.525               
C              3.487               -3.065              3.913               
C              2.658               -1.955              4.524               
O              2.447               -1.918              5.734               
C              4.748               -3.228              4.758               
C              4.477               -3.95               6.065               
O              3.291               -4.187              6.373               
O              5.447               -4.266              6.785               
H              4.674               -2.271              2.227               
H              2.919               -3.898              3.916               
H              5.405               -3.755              4.234               
H              5.103               -2.325              4.96                
N              2.204               -1.05               3.69                
C              1.411               0.056               4.145               
C              -0.061              -0.296              4.177               
O              -0.546              -1.084              3.365               
C              1.636               1.279               3.255               
C              0.868               1.17                1.945               
C              1.244               2.535               3.991               
H              2.465               -1.203              2.691               
H              1.694               0.289               5.089               
H              2.608               1.313               3.018               
H              -0.113              1.132               2.135               
H              1.066               1.967               1.375               
H              1.146               0.339               1.463               
H              0.482               2.98                3.516               
H              0.963               2.305               4.925               
H              2.024               3.163               4.025               
N              -0.769              0.325               5.086               
C              -2.186              0.07                5.226               
C              -2.532              -0.324              6.659               
C              -1.801              0.496               7.71                
C              -2.133              0.06                9.124               
O              -1.486              -0.886              9.621               
O              -3.039              0.664               9.736               
H              -0.245              0.996               5.68                
H              -2.455              -0.707              4.646               
H              -3.496              -0.179              6.786               
H              -2.276              -1.264              6.784               
H              -0.835              0.373               7.58                
H              -2.075              1.434               7.617               
H              -2.76265            0.953289            4.9366              
