257
0.xyz
N              2.168               2.17                2.887               
C              2.395               2.497               1.464               
C              3.854               2.352               1.067               
O              4.744               2.81                1.794               
H              1.71                2.936               3.336               
H              1.826               1.886               0.895               
H              2.09                3.446               1.295               
H              1.596               1.354               2.954               
H              3.045               1.999               3.334               
N              4.108               1.71                -0.084              
C              5.453               1.596               -0.666              
C              5.578               2.634               -1.786              
O              4.94                2.498               -2.84               
C              5.681               0.175               -1.224              
C              7.075               -0.055              -1.832              
C              7.245               -1.475              -2.388              
O              7.344               -2.424              -1.582              
O              7.273               -1.658              -3.627              
H              3.26                1.295               -0.534              
H              6.137               1.774               0.032               
H              5.577               -0.458              -0.479              
H              5.021               0.025               -1.936              
H              7.189               0.568               -2.577              
H              7.741               0.065               -1.126              
N              6.373               3.678               -1.542              
C              6.482               4.838               -2.439              
C              7.825               4.806               -3.19               
O              8.832               4.311               -2.667              
C              6.327               6.142               -1.611              
C              5.097               6.151               -0.706              
C              3.814               6.165               -1.245              
C              5.224               6.139               0.678               
C              2.704               6.171               -0.425              
C              4.112               6.146               1.498               
C              2.853               6.161               0.945               
H              6.918               3.602               -0.651              
H              5.765               4.741               -3.131              
H              7.122               6.229               -1.039              
H              6.24                6.889               -2.244              
H              3.696               6.169               -2.235              
H              6.141               6.124               1.086               
H              1.781               6.184               -0.839              
H              4.233               6.141               2.506               
H              2.041               6.164               1.534               
N              7.817               5.317               -4.43               
C              9.007               5.377               -5.278              
C              9.908               6.554               -4.855              
O              9.473               7.717               -4.816              
C              8.622               5.454               -6.807              
C              7.671               6.638               -7.129              
C              9.887               5.469               -7.703              
H              6.881               5.67                -4.737              
H              9.531               4.532               -5.148              
H              8.125               4.618               -7.028              
H              8.212               7.469               -7.21               
H              7.203               6.447               -7.986              
H              7.012               6.728               -6.389              
H              10.392              4.625               -7.551              
H              9.6                 5.536               -8.654              
H              10.443              6.255               -7.452              
N              11.141              6.214               -4.46               
C              12.21               7.183               -4.177              
C              13.06               7.396               -5.441              
O              13.362              6.446               -6.172              
C              13.106              6.737               -2.952              
C              13.642              5.295               -3.108              
C              14.266              7.74                -2.688              
H              11.284              5.176               -4.367              
H              11.785              8.056               -3.943              
H              12.521              6.744               -2.146              
H              14.618              5.334               -3.303              
H              13.482              4.799               -2.259              
H              13.161              4.852               -3.859              
H              14.784              7.848               -3.53               
H              13.871              8.608               -2.407              
H              14.843              7.369               -1.968              
N              13.4                8.664               -5.701              
C              14.247              9.064               -6.836              
C              15.736              8.834               -6.516              
O              16.457              8.205               -7.302              
C              14.003              10.556              -7.172              
C              14.857              11.108              -8.328              
C              14.56               12.573              -8.637              
O              13.52               12.851              -9.264              
O              15.351              13.459              -8.251              
H              13.007              9.358               -5.02               
H              13.997              8.53                -7.648              
H              13.059              10.65               -7.432              
H              14.22               11.08               -6.369              
H              15.799              11.044              -8.065              
H              14.652              10.587              -9.133              
N              16.18               9.366               -5.349              
C              17.611              9.396               -4.964              
C              17.784              9.615               -3.448              
O              16.822              9.917               -2.739              
C              18.343              10.51               -5.759              
C              17.876              11.948              -5.426              
C              18.422              13.007              -6.403              
C              19.957              12.999              -6.522              
N              20.44               13.981              -7.522              
H              15.424              9.752               -4.747              
H              18.027              8.514               -5.21               
H              19.314              10.448              -5.555              
H              18.184              10.352              -6.729              
H              16.874              11.972              -5.454              
H              18.183              12.177              -4.5                
H              18.036              12.833              -7.308              
H              18.137              13.91               -6.085              
H              20.344              13.216              -5.623              
H              20.248              12.077              -6.788              
H              20.668              14.841              -7.064              
H              21.255              13.621              -7.978              
H              19.724              14.146              -8.202              
N              19.026              9.439               -2.966              
C              19.419              9.757               -1.58               
C              20.14               11.12               -1.555              
O              20.884              11.46               -2.484              
C              20.353              8.645               -0.969              
C              20.755              8.979               0.489               
C              19.704              7.237               -1.058              
H              19.701              9.051               -3.667              
H              18.59               9.84                -1.034              
H              21.189              8.637               -1.504              
H              21.613              9.484               0.477               
H              20.037              9.533               0.901               
H              20.864              8.128               0.994               
H              19.241              7.159               -1.935              
H              20.423              6.554               -0.981              
H              19.053              7.143               -0.312              
N              19.891              11.889              -0.486              
C              20.5                13.208              -0.256              
C              21.535              13.16               0.892               
O              22.594              13.805              0.796               
C              19.41               14.276              0.051               
C              18.352              14.538              -1.075              
C              17.386              15.678              -0.689              
C              19.018              14.804              -2.445              
H              19.208              11.46               0.191               
H              20.978              13.491              -1.093              
H              18.908              13.976              0.852               
H              19.868              15.137              0.221               
H              17.833              13.699              -1.219              
H              17.912              16.512              -0.543              
H              16.732              15.812              -1.429              
H              16.907              15.427              0.148               
H              19.561              14.008              -2.7                
H              18.306              14.964              -3.124              
H              19.604              15.607              -2.368              
N              21.234              12.394              1.975               
C              22.083              12.36               3.2                 
C              21.915              11.018              3.953               
O              21.026              10.237              3.625               
C              21.754              13.569              4.119               
C              22.812              13.817              5.21                
O              23.933              14.24               4.872               
O              22.541              13.593              6.405               
H              20.366              11.838              1.875               
H              23.035              12.406              2.894               
H              21.697              14.377              3.546               
H              20.884              13.387              4.558               
N              22.824              10.737              4.912               
C              22.829              9.502               5.738               
C              23.253              9.827               7.189               
O              24.042              10.753              7.422               
C              23.807              8.479               5.099               
C              24.112              7.185               5.897               
C              25.131              6.276               5.167               
N              25.575              5.127               5.986               
C              26.082              3.973               5.502               
N              26.158              3.751               4.195               
N              26.495              3.039               6.345               
H              23.552              11.488              5.03                
H              21.903              9.126               5.754               
H              23.426              8.202               4.211               
H              24.682              8.947               4.94                
H              24.497              7.429               6.779               
H              23.272              6.669               6.013               
H              24.694              5.938               4.338               
H              25.921              6.837               4.934               
H              25.493              5.211               6.988               
H              25.856              4.45                3.548               
H              26.52               2.881               3.856               
H              26.448              3.199               7.333               
H              26.855              2.172               5.999               
N              22.71               9.051               8.146               
C              23.072              9.103               9.578               
C              22.824              7.72                10.216              
O              22.301              6.81                9.56                
C              22.248              10.204              10.316              
C              20.757              9.858               10.561              
C              19.969              11.027              11.18               
N              20.52               11.458              12.478              
C              20.148              12.555              13.158              
N              19.162              13.339              12.723              
N              20.754              12.842              14.298              
H              21.983              8.382               7.778               
H              24.041              9.319               9.656               
H              22.673              10.361              11.201              
H              22.281              11.031              9.765               
H              20.331              9.624               9.691               
H              20.703              9.084               11.186              
H              20.003              11.789              10.541              
H              19.028              10.725              11.307              
H              21.239              10.879              12.892              
H              18.671              13.103              11.886              
H              18.915              14.16               13.236              
H              21.467              12.239              14.659              
H              20.501              13.667              14.808              
N              23.211              7.567               11.495              
C              22.965              6.343               12.284              
C              22.178              6.695               13.562              
O              22.666              7.44                14.419              
C              24.307              5.605               12.658              
C              24.058              4.378               13.573              
C              25.076              5.187               11.385              
H              23.708              8.4                 11.889              
H              22.399              5.729               11.735              
H              24.859              6.246               13.18               
H              23.262              4.56                14.142              
H              23.897              3.58                13.001              
H              24.862              4.236               14.142              
H              25.68               4.428               11.612              
H              24.417              4.908               10.692              
H              25.607              5.966               11.063              
N              20.946              6.164               13.663              
C              20.07               6.33                14.834              
C              19.774              4.947               15.452              
O              19.246              4.06                14.765              
C              18.718              7.04                14.446              
C              17.75               7.131               15.652              
C              18.97               8.439               13.825              
H              20.658              5.61                12.818              
H              20.559              6.869               15.516              
H              18.273              6.472               13.762              
H              16.822              7.244               15.31               
H              17.82               6.292               16.183              
H              18.007              7.914               16.211              
H              18.78               8.39                12.85               
H              18.363              9.093               14.265              
H              19.921              8.687               13.982              
N              20.141              4.787               16.743              
C              19.881              3.569               17.556              
C              20.621              2.327               17.004              
O              20.233              1.185               17.277              
C              18.351              3.303               17.702              
C              17.592              4.454               18.373              
O              16.41               4.684               18.107              
N              18.263              5.184               19.251              
H              20.643              5.623               17.14               
H              20.254              3.747               18.473              
H              17.977              3.164               16.791              
H              18.235              2.482               18.252              
H              19.226              4.968               19.44               
H              17.821              5.942               19.723              
N              21.711              2.576               16.256              
H              21.947              3.587               16.169              
H              22.2571             1.83633             15.814              
