397
1.xyz
C              -12.639             1.381               -23.874             
C              -13.116             2.454               -22.898             
O              -14.121             3.122               -23.138             
C              -13.523             0.138               -23.754             
C              -13.729             -0.591              -25.071             
C              -14.836             0.018               -25.909             
O              -15.545             0.909               -25.396             
O              -14.994             -0.396              -27.076             
H              -12.744             1.717               -24.817             
H              -13.082             -0.484              -23.134             
H              -14.404             0.427               -23.431             
H              -12.897             -0.532              -25.59              
H              -13.982             -1.52               -24.875             
N              -12.388             2.61                -21.798             
C              -12.737             3.6                 -20.785             
C              -11.707             4.725               -20.746             
O              -10.7               4.683               -21.453             
C              -12.839             2.938               -19.409             
C              -14.185             2.278               -19.183             
H              -11.567             1.98                -21.724             
H              -13.612             4.013               -21.06              
H              -12.129             2.244               -19.341             
H              -12.706             3.638               -18.713             
O              -15.216             2.949               -19.128             
N              -14.182             0.957               -19.05              
H              -13.317             0.453               -19.095             
H              -15.039             0.464               -18.904             
N              -11.966             5.728               -19.914             
C              -11.061             6.863               -19.781             
C              -10.056             6.628               -18.657             
O              -9.47               7.572               -18.128             
C              -11.852             8.145               -19.514             
C              -12.471             8.716               -20.775             
O              -12.964             7.924               -21.605             
O              -12.461             9.955               -20.932             
H              -12.85              5.634               -19.379             
H              -10.535             6.928               -20.636             
H              -12.577             7.93                -18.871             
H              -11.23              8.816               -19.131             
N              -9.863              5.363               -18.298             
C              -8.93               5.004               -17.236             
C              -8.121              3.769               -17.617             
O              -7.445              3.175               -16.778             
C              -9.685              4.75                -15.93              
C              -11.057             4.147               -16.163             
H              -10.422             4.668               -18.828             
H              -8.278              5.765               -17.142             
H              -9.151              4.12                -15.375             
H              -9.795              5.619               -15.457             
O              -11.973             4.823               -16.631             
N              -11.204             2.868               -15.837             
H              -10.431             2.359               -15.454             
H              -12.083             2.413               -15.972             
N              -8.195              3.389               -18.889             
C              -7.469              2.224               -19.381             
C              -6.263              2.646               -20.214             
O              -6.229              3.748               -20.764             
C              -8.393              1.334               -20.216             
C              -9.431              0.592               -19.391             
C              -9.87               -0.707              -20.039             
O              -10.136             -0.7                -21.259             
O              -9.949              -1.729              -19.326             
H              -8.801              3.981               -19.487             
H              -7.159              1.664               -18.604             
H              -8.872              1.912               -20.849             
H              -7.835              0.664               -20.668             
H              -9.033              0.37                -18.521             
H              -10.225             1.164               -19.305             
N              -5.274              1.763               -20.304             
C              -4.065              2.044               -21.069             
C              -4.059              1.266               -22.382             
O              -4.642              0.187               -22.478             
C              -2.824              1.69                -20.248             
C              -1.549              2.462               -20.591             
C              -0.95               3.085               -19.34              
C              -0.539              1.549               -21.27              
H              -5.435              0.874               -19.792             
H              -4.041              3.027               -21.283             
H              -3.03               1.868               -19.29              
H              -2.632              0.723               -20.385             
H              -1.772              3.182               -21.247             
H              -0.726              2.366               -18.682             
H              -0.118              3.586               -19.581             
H              -1.61               3.716               -18.931             
H              -0.933              1.183               -22.114             
H              0.288               2.068               -21.488             
H              -0.305              0.793               -20.657             
N              -3.393              1.821               -23.389             
C              -3.31               1.18                -24.696             
C              -2.126              0.22                -24.756             
O              -1.117              0.417               -24.076             
C              -3.183              2.233               -25.798             
C              -4.219              3.341               -25.704             
C              -3.626              4.691               -26.075             
N              -2.833              4.623               -27.299             
C              -1.998              5.58                -27.689             
N              -1.848              6.673               -26.953             
N              -1.311              5.444               -28.816             
H              -2.946              2.732               -23.168             
H              -4.155              0.657               -24.857             
H              -2.281              2.646               -25.732             
H              -3.293              1.78                -26.676             
H              -4.97               3.149               -26.33              
H              -4.56               3.399               -24.769             
H              -4.377              5.334               -26.204             
H              -3.045              4.99                -25.322             
H              -2.924              3.809               -27.877             
H              -2.337              6.788               -26.093             
H              -1.226              7.402               -27.268             
H              -1.412              4.607               -29.359             
H              -0.697              6.167               -29.122             
N              -2.254              -0.82               -25.572             
C              -1.195              -1.812              -25.721             
C              -0.968              -2.15               -27.191             
O              -1.893              -2.098              -28                 
C              -1.544              -3.081              -24.942             
C              -0.462              -3.608              -23.999             
C              0.062               -2.491              -23.11              
C              -1.002              -4.754              -23.156             
H              -3.156              -0.865              -26.085             
H              -0.342              -1.43               -25.348             
H              -2.351              -2.889              -24.39              
H              -1.741              -3.8                -25.601             
H              0.29                -3.98               -24.543             
H              -0.689              -2.117              -22.565             
H              0.768               -2.852              -22.5               
H              0.453               -1.766              -23.678             
H              -1.301              -5.498              -23.755             
H              -0.283              -5.088              -22.545             
H              -1.778              -4.433              -22.612             
N              0.269               -2.499              -27.529             
C              0.617               -2.85               -28.9               
C              1.584               -4.028              -28.937             
O              2.534               -4.087              -28.157             
C              1.217               -1.649              -29.616             
H              0.952               -2.5                -26.746             
H              -0.223              -3.11               -29.393             
H              2.177               -1.549              -29.355             
H              1.154               -1.783              -30.605             
H              0.716               -0.823              -29.36              
N              1.335               -4.964              -29.848             
C              2.185               -6.142              -29.984             
C              3.655               -5.744              -30.081             
O              4.053               -5.015              -30.988             
C              1.781               -6.949              -31.219             
C              2.593               -8.22               -31.408             
C              3.04                -8.418              -32.843             
O              2.211               -8.218              -33.755             
O              4.218               -8.774              -33.054             
H              0.502               -4.787              -30.44              
H              2.054               -6.748              -29.191             
H              0.84                -7.209              -31.112             
H              1.925               -6.382              -32.008             
H              3.4                 -8.156              -30.851             
H              2.029               -8.987              -31.164             
N              4.457               -6.229              -29.137             
C              5.873               -5.913              -29.134             
C              6.206               -4.75               -28.22              
O              7.367               -4.362              -28.096             
H              3.995               -6.828              -28.434             
H              6.4                 -6.729              -28.841             
H              6.171               -5.691              -30.079             
N              5.184               -4.193              -27.579             
C              5.374               -3.067              -26.672             
C              5.697               -3.553              -25.263             
O              5.224               -4.606              -24.835             
C              4.122               -2.188              -26.647             
C              3.873               -1.497              -27.973             
O              4.028               -2.154              -29.023             
O              3.525               -0.297              -27.961             
H              4.259               -4.62               -27.776             
H              6.176               -2.553              -26.997             
H              3.344               -2.768              -26.437             
H              4.245               -1.499              -25.944             
N              6.506               -2.779              -24.547             
C              6.893               -3.131              -23.186             
C              6.078               -2.348              -22.163             
O              5.795               -1.165              -22.353             
C              8.391               -2.871              -22.941             
C              9.239               -3.676              -23.927             
C              8.761               -3.219              -21.507             
C              9.604               -5.055              -23.424             
H              6.831               -1.92               -25.031             
H              6.652               -4.099              -23.065             
H              8.565               -1.906              -23.101             
H              8.731               -3.765              -24.781             
H              10.079              -3.166              -24.105             
H              9.725               -3.009              -21.35              
H              8.198               -2.685              -20.878             
H              8.604               -4.192              -21.348             
H              8.769               -5.576              -23.251             
H              10.155              -5.524              -24.113             
H              10.128              -4.971              -22.577             
N              5.704               -3.015              -21.076             
C              4.923               -2.381              -20.02              
C              5.355               -2.876              -18.644             
O              5.942               -3.951              -18.515             
C              3.417               -2.646              -20.199             
C              2.818               -1.67               -21.2               
C              3.177               -4.084              -20.634             
H              6.01                -4.007              -21.045             
H              5.09                -1.388              -20.059             
H              2.973               -2.476              -19.324             
H              2.826               -2.08               -22.112             
H              1.876               -1.459              -20.939             
H              3.357               -0.828              -21.209             
H              3.029               -4.653              -19.825             
H              2.37                -4.12               -21.223             
H              3.976               -4.415              -21.136             
N              5.061               -2.085              -17.618             
C              5.419               -2.443              -16.25              
C              4.172               -2.614              -15.388             
O              3.503               -1.638              -15.045             
C              6.33                -1.373              -15.643             
C              7.647               -1.234              -16.352             
C              8.54                -2.293              -16.396             
C              7.992               -0.045              -16.974             
C              9.752               -2.168              -17.048             
C              9.202               0.085               -17.627             
C              10.084              -0.977              -17.664             
H              4.565               -1.209              -17.869             
H              5.869               -3.341              -16.289             
H              5.858               -0.507              -15.699             
H              6.511               -1.627              -14.706             
H              8.307               -3.156              -15.954             
H              7.355               0.728               -16.95              
H              10.39               -2.95               -17.069             
H              9.438               0.964               -18.077             
H              10.963              -0.888              -18.136             
N              3.866               -3.859              -15.042             
C              2.7                 -4.158              -14.22              
C              2.924               -3.735              -12.772             
O              3.618               -4.415              -12.016             
C              2.355               -5.659              -14.256             
C              2.438               -6.189              -15.689             
C              0.97                -5.899              -13.676             
C              1.526               -5.465              -16.654             
H              4.516               -4.585              -15.4               
H              1.951               -3.587              -14.573             
H              3.03                -6.142              -13.709             
H              3.38                -6.101              -16.004             
H              2.191               -7.157              -15.678             
H              0.775               -6.879              -13.67              
H              0.933               -5.548              -12.742             
H              0.288               -5.429              -14.234             
H              1.77                -4.496              -16.678             
H              1.629               -5.859              -17.567             
H              0.579               -5.564              -16.352             
N              2.332               -2.607              -12.392             
C              2.469               -2.091              -11.036             
C              1.829               -3.04               -10.026             
O              2.374               -3.276              -8.948              
C              1.828               -0.706              -10.927             
O              2.702               0.299               -11.41              
H              1.775               -2.136              -13.131             
H              3.45                -2.029              -10.821             
H              0.992               -0.696              -11.467             
H              1.621               -0.523              -9.97               
H              3.021               0.052               -12.324             
N              0.67                -3.581              -10.385             
C              -0.046              -4.503              -9.511              
C              -1.263              -5.091              -10.22              
O              -1.87               -4.446              -11.075             
C              -0.483              -3.789              -8.231              
C              -1.621              -2.814              -8.439              
C              -1.372              -1.487              -8.768              
C              -2.943              -3.22               -8.306              
C              -2.408              -0.593              -8.959              
C              -3.985              -2.333              -8.497              
C              -3.712              -1.021              -8.823              
O              -4.747              -0.134              -9.012              
H              0.326               -3.296              -11.322             
H              0.573               -5.261              -9.274              
H              -0.778              -4.477              -7.574              
H              0.297               -3.284              -7.873              
H              -0.425              -1.173              -8.868              
H              -3.142              -4.171              -8.069              
H              -2.213              0.362               -9.197              
H              -4.933              -2.64               -8.399              
H              -5.607              -0.639              -9.061              
N              -1.613              -6.32               -9.857              
C              -2.758              -6.998              -10.454             
C              -4.061              -6.536              -9.809              
O              -4.107              -6.256              -8.611              
C              -2.613              -8.514              -10.307             
C              -3.908              -9.274              -10.535             
C              -3.665              -10.77              -10.643             
C              -4.905              -11.565             -10.262             
N              -4.763              -12.208             -8.927              
H              -1.012              -6.747              -9.126              
H              -2.791              -6.781              -11.437             
H              -1.942              -8.829              -10.973             
H              -2.292              -8.707              -9.383              
H              -4.528              -9.102              -9.768              
H              -4.332              -8.953              -11.382             
H              -3.424              -10.991             -11.583             
H              -2.926              -11.023             -10.028             
H              -5.695              -10.947             -10.248             
H              -5.062              -12.275             -10.954             
H              -4.757              -13.202             -9.037              
H              -3.906              -11.912             -8.506              
H              -5.531              -11.94              -8.347              
N              -5.118              -6.46               -10.61              
C              -6.423              -6.035              -10.116             
C              -7.521              -6.98               -10.597             
O              -7.37               -7.657              -11.613             
C              -6.725              -4.608              -10.575             
C              -7.725              -3.901              -9.713              
H              -4.938              -6.724              -11.598             
H              -6.407              -6.058              -9.11               
H              -5.872              -4.075              -10.572             
H              -7.082              -4.636              -11.515             
N              -7.505              -3.62               -8.381              
C              -8.955              -3.414              -10                 
C              -8.557              -2.994              -7.886              
N              -9.451              -2.856              -8.848              
H              -6.676              -3.855              -7.873              
H              -9.416              -3.453              -10.883             
H              -8.66               -2.68               -6.946              
N              -8.625              -7.02               -9.858              
C              -9.731              -7.886              -10.225             
C              -10.319             -7.535              -11.577             
O              -9.792              -6.677              -12.285             
H              -8.623              -6.402              -9.031              
H              -9.413              -8.85               -10.239             
H              -10.457             -7.822              -9.518              
N              -11.411             -8.201              -11.937             
C              -12.069             -7.955              -13.215             
C              -11.164             -8.35               -14.377             
O              -11.426             -8.002              -15.528             
C              -12.461             -6.482              -13.336             
C              -13.269             -5.968              -12.156             
C              -14.721             -6.403              -12.209             
H              -11.747             -8.897              -11.244             
H              -12.892             -8.532              -13.257             
H              -11.628             -5.933              -13.407             
H              -13.009             -6.362              -14.165             
H              -12.863             -6.318              -11.312             
H              -13.235             -4.969              -12.154             
O              -15.284             -6.594              -13.287             
N              -15.335             -6.561              -11.043             
H              -16.312             -6.837              -11                 
H              -14.809             -6.401              -10.185             
N              -10.096             -9.08               -14.068             
C              -9.168              -9.51               -15.098             
C              -8.393              -8.354              -15.699             
O              -8.01               -8.397              -16.868             
H              -9.993              -9.304              -13.065             
H              -8.516              -10.181             -14.705             
H              -9.679              -9.988              -15.833             
N              -8.163              -7.319              -14.899             
C              -7.43               -6.146              -15.36              
C              -6.222              -5.875              -14.471             
O              -6.307              -5.966              -13.245             
C              -8.347              -4.922              -15.382             
C              -9.397              -4.985              -16.45              
C              -10.711             -5.32               -16.289             
C              -9.219              -4.709              -17.844             
N              -11.361             -5.268              -17.499             
C              -10.468             -4.895              -18.468             
C              -8.127              -4.32               -18.625             
C              -10.652             -4.706              -19.835             
C              -8.312              -4.133              -19.981             
C              -9.566              -4.325              -20.575             
H              -8.543              -7.416              -13.938             
H              -7.087              -6.342              -16.286             
H              -8.816              -4.855              -14.511             
H              -7.8                -4.112              -15.552             
H              -11.139             -5.567              -15.422             
H              -12.328             -5.469              -17.649             
H              -7.228              -4.178              -18.214             
H              -11.557             -4.849              -20.249             
H              -7.538              -3.857              -20.545             
H              -9.659              -4.178              -21.56              
N              -5.097              -5.542              -15.094             
C              -3.87               -5.257              -14.358             
C              -3.38               -3.84               -14.642             
O              -3.322              -3.412              -15.795             
C              -2.783              -6.268              -14.728             
C              -3.267              -7.678              -15.067             
C              -2.085              -8.614              -15.269             
C              -4.186              -8.205              -13.975             
H              -5.166              -5.503              -16.129             
H              -4.06               -5.335              -13.373             
H              -2.301              -5.919              -15.527             
H              -2.161              -6.344              -13.956             
H              -3.81               -7.643              -15.906             
H              -1.54               -8.651              -14.431             
H              -2.418              -9.531              -15.49              
H              -1.516              -8.277              -16.02              
H              -4.98               -7.603              -13.886             
H              -4.493              -9.127              -14.212             
H              -3.691              -8.233              -13.106             
N              -3.027              -3.118              -13.584             
H              -3.127              -3.603              -12.671             
H              -11.6236            1.13061             -23.6935            
H              -2.68839            -2.16947            -13.6784            
