329
0.xyz
N              11.249              7.821               6.255               
C              11.11               7.75                4.781               
C              11.748              6.481               4.224               
O              11.398              6.031               3.135               
C              11.736              8.981               4.122               
C              11.093              10.268              4.588               
O              11.285              10.635              5.765               
O              10.396              10.915              3.784               
H              10.958              6.955               6.657               
H              10.124              7.701               4.586               
H              12.699              8.998               4.359               
H              11.616              8.898               3.142               
H              12.204              7.995               6.49                
H              10.678              8.561               6.606               
N              12.721              5.928               4.94                
C              13.33               4.663               4.533               
C              12.474              3.449               4.93                
O              12.188              2.603               4.084               
C              14.757              4.511               5.103               
C              15.339              3.144               4.769               
C              15.656              5.611               4.568               
H              13.001              6.454               5.784               
H              13.412              4.662               3.526               
H              14.692              4.566               6.096               
H              15.84               2.792               5.56                
H              14.598              2.514               4.537               
H              15.961              3.227               3.991               
H              16.194              5.257               3.803               
H              15.093              6.377               4.256               
H              16.27               5.921               5.295               
N              12.032              3.34                6.208               
C              11.18               2.222               6.64                
C              9.824               2.238               5.948               
O              9.166               1.208               5.807               
C              11.017              2.434               8.147               
C              11.323              3.875               8.368               
C              12.343              4.245               7.33                
H              11.651              1.34                6.488               
H              10.078              2.216               8.435               
H              11.653              1.847               8.657               
H              10.49               4.434               8.267               
H              11.687              4.021               9.297               
H              12.249              5.199               7.046               
H              13.276              4.088               7.658               
N              9.41                3.428               5.55                
C              8.178               3.618               4.808               
C              8.426               4.617               3.687               
O              8.632               5.804               3.952               
C              7.058               4.132               5.724               
C              6.639               3.198               6.868               
C              5.624               3.89                7.762               
C              6.057               1.899               6.325               
H              10.044              4.218               5.815               
H              7.907               2.746               4.4                 
H              7.368               4.983               6.136               
H              6.254               4.292               5.162               
H              7.447               2.96                7.401               
H              4.815               4.134               7.225               
H              5.356               3.275               8.505               
H              6.028               4.72                8.148               
H              6.744               1.434               5.766               
H              5.792               1.308               7.087               
H              5.253               2.102               5.765               
N              8.483               4.133               2.435               
C              8.716               4.981               1.258               
C              7.779               6.186               1.205               
O              6.621               6.113               1.625               
C              8.457               4.032               0.085               
C              8.748               2.679               0.622               
C              8.343               2.713               2.068               
H              9.684               5.28                1.223               
H              7.502               4.104               -0.221              
H              9.06                4.254               -0.687              
H              8.225               1.976               0.121               
H              9.729               2.463               0.531               
H              7.396               2.411               2.192               
H              8.945               2.144               2.632               
N              8.28                7.282               0.653               
C              7.537               8.531               0.621               
C              6.691               8.618               -0.642              
O              7.169               8.353               -1.747              
C              8.489               9.716               0.709               
H              9.234               7.172               0.252               
H              6.925               8.568               1.419               
H              9.397               9.439               0.396               
H              8.151               10.459              0.132               
H              8.545               10.03               1.656               
N              5.431               8.991               -0.462              
C              4.488               9.007               -1.564              
C              3.776               7.678               -1.688              
O              3.12                7.39                -2.694              
H              5.189               9.262               0.509               
H              3.809               9.739               -1.416              
H              4.977               9.207               -2.424              
N              3.895               6.879               -0.64               
C              3.281               5.564               -0.591              
C              2.298               5.485               0.57                
O              2.532               6.058               1.639               
C              4.352               4.477               -0.431              
C              5.209               4.259               -1.642              
C              6.232               5.047               -2.077              
C              5.134               3.159               -2.557              
N              6.792               4.515               -3.212              
C              6.135               3.357               -3.527              
C              4.316               2.031               -2.655              
C              6.342               2.468               -4.575              
C              4.523               1.148               -3.697              
C              5.53                1.372               -4.644              
H              4.465               7.273               0.143               
H              2.758               5.434               -1.439              
H              4.958               4.732               0.318               
H              3.902               3.611               -0.227              
H              6.534               5.892               -1.636              
H              7.554               4.908               -3.725              
H              3.595               1.861               -1.986              
H              7.067               2.64                -5.251              
H              3.945               0.341               -3.774              
H              5.649               0.707               -5.384              
N              1.206               4.772               0.361               
C              0.226               4.554               1.408               
C              0.586               3.293               2.176               
O              0.524               2.189               1.63                
C              -1.177              4.429               0.815               
C              -2.279              4.432               1.857               
C              -2.341              5.74                2.614               
O              -2.972              6.691               2.107               
O              -1.74               5.828               3.707               
H              1.112               4.387               -0.602              
H              0.214               5.336               2.034               
H              -1.322              5.201               0.224               
H              -1.223              3.575               0.332               
H              -3.137              4.312               1.399               
H              -2.094              3.721               2.506               
N              0.976               3.459               3.428               
C              1.474               2.346               4.222               
C              0.406               1.881               5.201               
O              0.105               2.582               6.173               
C              2.738               2.754               4.996               
C              3.619               3.762               4.266               
S              4.141               3.203               2.633               
C              5.247               1.867               3.057               
H              0.898               4.43                3.788               
H              1.68                1.584               3.602               
H              2.463               3.153               5.88                
H              3.286               1.928               5.181               
H              3.105               4.65                4.2                 
H              4.434               3.967               4.859               
H              5.466               1.336               2.236               
H              6.093               2.238               3.445               
H              4.811               1.267               3.731               
N              -0.189              0.724               4.939               
C              -1.199              0.186               5.84                
C              -1.182              -1.337              5.842               
O              -1.096              -1.977              4.792               
C              -2.577              0.714               5.473               
H              0.117               0.256               4.071               
H              -1.006              0.51                6.776               
H              -2.714              1.612               5.892               
H              -2.65               0.797               4.479               
H              -3.277              0.082               5.805               
N              -1.249              -1.905              7.033               
C              -1.193              -3.347              7.206               
C              -2.419              -3.828              7.973               
O              -2.71               -3.329              9.06                
C              0.086               -3.716              7.966               
C              1.358               -3.251              7.275               
C              2.544               -3.255              8.224               
C              3.821               -2.815              7.525               
N              4.947               -2.647              8.482               
H              -1.344              -1.238              7.83                
H              -1.186              -3.787              6.303               
H              0.045               -3.294              8.867               
H              0.119               -4.708              8.054               
H              1.555               -3.863              6.508               
H              1.222               -2.322              6.93                
H              2.36                -2.626              8.973               
H              2.676               -4.177              8.573               
H              4.07                -3.505              6.84                
H              3.652               -1.942              7.058               
H              5.814               -2.774              8                   
H              4.914               -1.728              8.875               
H              4.867               -3.326              9.211               
N              -3.138              -4.789              7.413               
C              -4.334              -5.307              8.059               
C              -3.979              -6.477              8.969               
O              -3.06               -7.253              8.667               
C              -5.385              -5.78               7.032               
O              -4.918              -6.953              6.356               
C              -5.678              -4.696              6.003               
H              -2.784              -5.13               6.501               
H              -4.736              -4.579              8.624               
H              -6.245              -6.019              7.53                
H              -4.833              -4.207              5.775               
H              -6.053              -5.11               5.171               
H              -6.344              -4.046              6.375               
H              -4.056              -6.76               5.875               
N              -4.711              -6.605              10.074              
C              -4.53               -7.715              11                  
C              -4.928              -9.036              10.345              
O              -4.616              -10.117             10.847              
C              -5.349              -7.48               12.272              
O              -6.718              -7.252              11.967              
H              -5.415              -5.85               10.215              
H              -3.554              -7.771              11.236              
H              -5.277              -8.285              12.854              
H              -4.986              -6.682              12.744              
H              -6.959              -7.748              11.135              
N              -5.633              -8.931              9.226               
C              -5.964              -10.082             8.396               
C              -4.701              -10.686             7.784               
O              -4.719              -11.799             7.258               
C              -6.938              -9.671              7.295               
O              -8.063              -9.01               7.839               
H              -5.929              -7.956              8.992               
H              -6.386              -10.781             8.982               
H              -6.472              -9.056              6.666               
H              -7.242              -10.488             6.814               
H              -7.772              -8.412              8.585               
N              -3.613              -9.929              7.838               
C              -2.374              -10.357             7.234               
C              -2.26               -9.892              5.801               
O              -1.865              -10.654             4.92                
H              -3.734              -9.028              8.34                
H              -1.593              -9.993              7.767               
H              -2.313              -11.368             7.263               
N              -2.623              -8.636              5.567               
C              -2.47               -8.024              4.254               
C              -1.632              -6.761              4.363               
O              -2.056              -5.77               4.957               
C              -3.826              -7.695              3.623               
C              -4.57               -8.913              3.097               
C              -5.968              -8.588              2.602               
H              -3.019              -8.137              6.389               
H              -1.978              -8.671              3.665               
H              -4.401              -7.252              4.312               
H              -3.68               -7.065              2.858               
H              -4.048              -9.305              2.338               
H              -4.641              -9.588              3.833               
O              -6.87               -9.42               2.669               
N              -6.154              -7.377              2.099               
H              -7.06               -7.093              1.735               
H              -5.369              -6.725              2.081               
N              -0.433              -6.817              3.812               
C              0.46                -5.67               3.803               
C              0.444               -5.015              2.425               
O              1.08                -5.501              1.493               
C              1.885               -6.098              4.195               
C              2.376               -7.336              3.457               
C              3.669               -7.88               4.044               
N              4.818               -6.999              3.825               
C              6.08                -7.433              3.82                
N              6.331               -8.727              3.981               
N              7.087               -6.588              3.639               
H              -0.186              -7.737              3.392               
H              0.141               -5.001              4.478               
H              2.501               -5.347              3.986               
H              1.891               -6.294              5.168               
H              1.682               -8.053              3.514               
H              2.543               -7.106              2.499               
H              3.535               -8.005              5.028               
H              3.852               -8.768              3.62                
H              4.649               -6.028              3.672               
H              5.597               -9.39               4.086               
H              7.289               -9.047              3.996               
H              6.884               -5.615              3.485               
H              8.027               -6.909              3.653               
N              -0.32               -3.942              2.28                
C              -0.445              -3.287              0.989               
C              0.186               -1.908              1.026               
O              0.188               -1.225              2.062               
C              -1.915              -3.197              0.548               
C              -2.817              -2.436              1.492               
C              -2.766              -1.05               1.576               
C              -3.727              -3.106              2.295               
C              -3.585              -0.358              2.442               
C              -4.555              -2.418              3.161               
C              -4.479              -1.052              3.235               
O              -5.294              -0.378              4.116               
H              -0.802              -3.624              3.137               
H              0.045               -3.839              0.304               
H              -1.942              -2.746              -0.345              
H              -2.269              -4.129              0.46                
H              -2.121              -0.545              0.996               
H              -3.785              -4.103              2.245               
H              -3.535              0.642               2.497               
H              -5.209              -2.921              3.734               
H              -5.012              -0.589              5.05                
N              0.714               -1.509              -0.115              
C              1.34                -0.216              -0.258              
C              0.819               0.46                -1.521              
O              0.939               -0.077              -2.62               
C              2.864               -0.368              -0.311              
C              3.421               -1.198              0.815               
C              3.529               -0.679              2.094               
C              3.831               -2.499              0.592               
C              4.034               -1.442              3.129               
C              4.337               -3.267              1.621               
C              4.44                -2.738              2.892               
H              0.64                -2.202              -0.894              
H              1.041               0.35                0.513               
H              3.094               -0.812              -1.161              
H              3.26                0.533               -0.251              
H              3.238               0.259               2.274               
H              3.759               -2.889              -0.329              
H              4.104               -1.044              4.053               
H              4.634               -4.221              1.437               
H              4.808               -3.292              3.641               
N              0.221               1.625               -1.359              
C              -0.295              2.375               -2.495              
C              0.76                3.31                -3.051              
O              1.485               3.938               -2.291              
C              -1.469              3.259               -2.087              
C              -2.871              2.68                -2.175              
C              -3.814              3.795               -2.611              
C              -2.937              1.499               -3.136              
H              0.151               1.954               -0.377              
H              -0.558              1.723               -3.217              
H              -1.321              3.54                -1.131              
H              -1.447              4.081               -2.667              
H              -3.146              2.346               -1.285              
H              -3.528              4.144               -3.503              
H              -4.745              3.437               -2.676              
H              -3.788              4.535               -1.939              
H              -2.319              0.778               -2.821              
H              -3.873              1.146               -3.167              
H              -2.663              1.797               -4.051              
N              0.823               3.45                -4.364              
H              0.298               2.752               -4.911              
H              1.35659             4.19869             -4.76437            
