163
1.xyz
C              -17.802             -25.435             -6.866              
C              -18.577             -24.129             -7.038              
O              -19.52              -23.858             -6.3                
C              -16.948             -25.365             -5.599              
C              -16.223             -26.665             -5.316              
H              -18.483             -26.175             -6.813              
H              -16.273             -24.642             -5.714              
H              -17.545             -25.159             -4.829              
O              -15.123             -26.895             -5.815              
N              -16.832             -27.521             -4.513              
H              -17.732             -27.296             -4.13               
H              -16.401             -28.394             -4.284              
N              -18.17              -23.317             -8.008              
C              -18.868             -22.071             -8.275              
C              -18.089             -20.851             -7.819              
O              -18.34              -19.735             -8.275              
H              -17.343             -23.641             -8.535              
H              -19.052             -21.996             -9.271              
H              -19.77              -22.084             -7.808              
N              -17.138             -21.061             -6.923              
C              -16.331             -19.969             -6.4                
C              -15.205             -19.603             -7.362              
O              -14.592             -20.476             -7.979              
C              -15.762             -20.336             -5.025              
C              -16.802             -20.29              -3.917              
C              -17.285             -18.867             -3.689              
N              -18.459             -18.802             -2.821              
C              -18.721             -17.785             -1.999              
N              -17.878             -16.765             -1.904              
N              -19.83              -17.781             -1.272              
H              -17.02              -22.051             -6.632              
H              -16.919             -19.159             -6.273              
H              -15.402             -21.258             -5.074              
H              -15.045             -19.689             -4.803              
H              -17.584             -20.847             -4.172              
H              -16.4               -20.621             -3.07               
H              -16.539             -18.349             -3.272              
H              -17.511             -18.471             -4.579              
H              -19.107             -19.568             -2.844              
H              -17.049             -16.731             -2.456              
H              -18.078             -16.013             -1.266              
H              -20.48              -18.542             -1.361              
H              -20.02              -17.032             -0.644              
N              -14.933             -18.299             -7.51               
C              -13.857             -17.809             -8.361              
C              -12.509             -17.836             -7.653              
O              -12.412             -17.521             -6.465              
C              -14.27              -16.367             -8.656              
C              -15.087             -15.945             -7.477              
C              -15.665             -17.197             -6.858              
H              -13.815             -18.335             -9.226              
H              -13.46              -15.78              -8.759              
H              -14.81              -16.318             -9.502              
H              -14.512             -15.45              -6.807              
H              -15.827             -15.318             -7.766              
H              -15.516             -17.214             -5.866              
H              -16.65              -17.272             -7.04               
N              -11.474             -18.214             -8.38               
C              -10.132             -18.237             -7.83               
C              -9.17               -17.533             -8.776              
O              -9.367              -17.526             -9.992              
C              -9.667              -19.672             -7.537              
C              -9.532              -20.55              -8.751              
C              -10.628             -21.226             -9.262              
C              -8.305              -20.704             -9.375              
C              -10.502             -22.037             -10.374             
C              -8.174              -21.514             -10.486             
C              -9.274              -22.181             -10.986             
H              -11.699             -18.487             -9.357              
H              -10.149             -17.699             -6.983              
H              -8.78               -19.616             -7.098              
H              -10.335             -20.086             -6.932              
H              -11.519             -21.127             -8.826              
H              -7.504              -20.221             -9.015              
H              -11.312             -22.521             -10.731             
H              -7.266              -21.616             -10.929             
H              -9.184              -22.769             -11.792             
N              -8.141              -16.94              -8.204              
C              -7.164              -16.185             -8.963              
C              -5.945              -17.045             -9.272              
O              -5.505              -17.847             -8.447              
C              -6.777              -14.926             -8.186              
C              -7.977              -14.1               -7.794              
C              -8.653              -14.355             -6.609              
C              -8.439              -13.085             -8.615              
C              -9.761              -13.609             -6.248              
C              -9.547              -12.335             -8.257              
C              -10.21              -12.601             -7.075              
H              -8.09               -17.06              -7.167              
H              -7.586              -15.955             -9.847              
H              -6.319              -15.205             -7.363              
H              -6.206              -14.375             -8.765              
H              -8.337              -15.085             -6.006              
H              -7.967              -12.89              -9.476              
H              -10.234             -13.81              -5.38               
H              -9.867              -11.592             -8.87               
H              -11.015             -12.064             -6.816              
N              -5.417              -16.866             -10.474             
C              -4.295              -17.655             -10.963             
C              -3.126              -16.751             -11.323             
O              -3.22               -15.955             -12.258             
C              -4.687              -18.445             -12.228             
C              -6.054              -19.102             -12.051             
C              -3.629              -19.493             -12.544             
C              -6.66               -19.597             -13.344             
H              -5.873              -16.113             -11.039             
H              -3.992              -18.224             -10.193             
H              -4.748              -17.8               -12.984             
H              -5.957              -19.871             -11.422             
H              -6.673              -18.432             -11.643             
H              -3.872              -19.968             -13.388             
H              -2.742              -19.048             -12.657             
H              -3.578              -20.151             -11.795             
H              -6.054              -20.276             -13.757             
H              -7.549              -20.013             -13.156             
H              -6.777              -18.828             -13.972             
N              -2.034              -16.868             -10.595             
C              -0.859              -16.055             -10.869             
C              0.054               -16.742             -11.88              
O              0.68                -17.761             -11.582             
C              -0.094              -15.771             -9.579              
C              1.242               -15.118             -9.844              
O              1.273               -13.936             -10.228             
O              2.275               -15.793             -9.678              
H              -2.081              -17.568             -9.832              
H              -1.178              -15.2               -11.295             
H              -0.645              -15.162             -9.023              
H              0.056               -16.633             -9.114              
N              0.105               -16.181             -13.082             
C              0.951               -16.697             -14.162             
C              2.437               -16.654             -13.801             
O              3.233               -17.42              -14.347             
C              0.748               -15.877             -15.445             
C              -0.599              -16.009             -16.094             
H              -0.507              -15.342             -13.195             
H              0.696               -17.66              -14.332             
H              0.901               -14.898             -15.233             
H              1.451               -16.153             -16.121             
N              -0.785              -16.635             -17.305             
C              -1.821              -15.565             -15.715             
C              -2.057              -16.567             -17.646             
N              -2.712              -15.923             -16.699             
H              -0.063              -17.075             -17.843             
H              -2.037              -15.069             -14.877             
H              -2.458              -16.939             -18.481             
N              2.8                 -15.76              -12.889             
C              4.204               -15.544             -12.538             
C              4.825               -16.756             -11.845             
O              5.828               -17.293             -12.316             
C              4.359               -14.301             -11.654             
C              3.875               -13.034             -12.336             
H              2.017               -15.236             -12.453             
H              4.709               -15.409             -13.403             
H              3.827               -14.438             -10.824             
H              5.324               -14.194             -11.431             
O              4.596               -12.42              -13.121             
N              2.655               -12.623             -12.026             
H              2.106               -13.141             -11.366             
H              2.278               -11.798             -12.446             
N              4.238               -17.194             -10.737             
H              3.38                -16.691             -10.463             
H              4.62796             -17.9704            -10.2166            
H              -17.1877            -25.6323            -7.70963            
