274
0.xyz
N              -6.788              17.544              -0.089              
C              -7.123              17.879              -1.488              
C              -6.002              18.636              -2.168              
O              -5.59               19.694              -1.696              
H              -7.326              16.754              0.203               
H              -7.311              17.024              -1.99               
H              -7.965              18.436              -1.496              
H              -5.815              17.327              -0.022              
H              -6.996              18.324              0.5                 
N              -5.497              18.069              -3.249              
C              -4.472              18.695              -4.074              
C              -4.258              17.809              -5.291              
O              -3.358              16.97               -5.305              
C              -3.154              18.882              -3.298              
O              -2.198              19.61               -4.054              
H              -5.898              17.123              -3.467              
H              -4.817              19.573              -4.388              
H              -3.35               19.378              -2.456              
H              -2.783              17.982              -3.084              
H              -2.668              20.283              -4.623              
N              -5.132              17.967              -6.286              
C              -5.182              17.059              -7.429              
C              -5.568              15.657              -6.946              
O              -6.071              15.503              -5.828              
C              -3.842              17.049              -8.17               
O              -3.527              18.344              -8.651              
H              -5.767              18.784              -6.177              
H              -5.898              17.376              -8.05               
H              -3.131              16.754              -7.542              
H              -3.907              16.424              -8.94               
H              -3.779              19.025              -7.964              
N              -5.371              14.646              -7.773              
C              -5.721              13.288              -7.39               
C              -4.726              12.288              -7.964              
O              -4.147              12.514              -9.026              
C              -7.143              12.963              -7.852              
O              -8.083              13.825              -7.229              
H              -4.959              14.897              -8.689              
H              -5.679              13.223              -6.386              
H              -7.196              13.084              -8.837              
H              -7.353              12.023              -7.605              
H              -7.598              14.502              -6.677              
N              -4.525              11.196              -7.24               
C              -3.594              10.17               -7.661              
C              -3.552              9.035               -6.67               
O              -3.795              7.879               -7.014              
H              -5.083              11.145              -6.364              
H              -3.869              9.817               -8.567              
H              -2.671              10.57               -7.754              
N              -3.246              9.377               -5.426              
C              -3.276              8.412               -4.341              
C              -4.505              8.631               -3.468              
O              -4.892              9.772               -3.207              
C              -2.012              8.515               -3.482              
C              -0.696              8.22                -4.204              
C              0.468               8.303               -3.231              
C              -0.741              6.85                -4.862              
H              -2.988              10.376              -5.299              
H              -3.326              7.487               -4.731              
H              -1.957              9.443               -3.131              
H              -2.096              7.864               -2.737              
H              -0.569              8.89                -4.933              
H              0.341               7.634               -2.498              
H              1.323               8.109               -3.713              
H              0.511               9.222               -2.837              
H              -1.488              6.822               -5.528              
H              0.127               6.674               -5.329              
H              -0.891              6.148               -4.165              
N              -5.151              7.544               -3.025              
C              -6.268              7.63                -2.085              
C              -5.819              8.181               -0.728              
O              -4.631              8.121               -0.39               
C              -6.748              6.179               -1.952              
C              -6.168              5.464               -3.125              
C              -4.868              6.154               -3.412              
H              -7.015              8.192               -2.465              
H              -6.423              5.779               -1.088              
H              -7.753              6.138               -1.964              
H              -6.019              4.493               -2.908              
H              -6.788              5.522               -3.915              
H              -4.124              5.781               -2.861              
H              -4.629              6.1                 -4.381              
N              -6.759              8.733               0.062               
C              -6.447              9.331               1.366               
C              -5.744              8.355               2.312               
O              -6.358              7.422               2.834               
C              -7.817              9.719               1.929               
C              -8.702              9.832               0.74                
C              -8.197              8.822               -0.251              
H              -5.893              10.172              1.248               
H              -8.15               9.013               2.563               
H              -7.76               10.592              2.424               
H              -9.66               9.639               0.99                
H              -8.661              10.763              0.354               
H              -8.638              7.933               -0.127              
H              -8.332              9.132               -1.193              
N              -4.444              8.565               2.5                 
C              -3.69               7.76                3.439               
C              -2.909              6.64                2.775               
O              -2.628              5.625               3.407               
H              -4.038              9.329               1.933               
H              -3.044              8.356               3.953               
H              -4.325              7.36                4.127               
N              -2.554              6.816               1.509               
C              -1.763              5.819               0.788               
C              -0.334              6.291               0.576               
O              -0.094              7.408               0.117               
C              -2.403              5.495               -0.564              
C              -3.549              4.531               -0.47               
C              -4.614              4.599               0.379               
C              -3.749              3.359               -1.271              
N              -5.453              3.533               0.168               
C              -4.944              2.759               -0.841              
C              -3.028              2.761               -2.309              
C              -5.437              1.588               -1.414              
C              -3.517              1.597               -2.875              
C              -4.713              1.022               -2.428              
H              -2.879              7.704               1.081               
H              -1.73               4.988               1.357               
H              -2.754              6.333               -0.963              
H              -1.719              5.084               -1.154              
H              -4.764              5.317               1.056               
H              -6.299              3.35                0.668               
H              -2.177              3.163               -2.64               
H              -6.297              1.185               -1.081              
H              -3.006              1.163               -3.612              
H              -5.036              0.182               -2.865              
N              0.616               5.44                0.929               
C              2.014               5.711               0.643               
C              2.503               4.826               -0.49               
O              2.293               3.61                -0.477              
C              2.894               5.482               1.867               
C              2.915               6.633               2.859               
C              3.839               6.358               4.032               
O              5.018               6.01                3.804               
O              3.378               6.451               5.185               
H              0.283               4.586               1.415               
H              2.128               6.677               0.388               
H              2.55                4.687               2.341               
H              3.819               5.344               1.552               
H              3.249               7.431               2.399               
H              2.01                6.751               3.216               
N              3.142               5.443               -1.47               
C              3.736               4.726               -2.583              
C              5.246               4.611               -2.369              
O              5.955               5.618               -2.365              
C              3.428               5.464               -3.893              
C              4.077               4.844               -5.117              
C              3.845               5.657               -6.372              
O              4.449               6.741               -6.498              
O              3.071               5.206               -7.246              
H              3.182               6.484               -1.374              
H              3.341               3.808               -2.651              
H              2.454               5.44                -4.025              
H              3.769               6.382               -3.804              
H              5.047               4.802               -4.964              
H              3.682               3.956               -5.261              
N              5.732               3.393               -2.163              
C              7.155               3.176               -1.918              
C              7.536               1.73                -2.203              
O              6.675               0.865               -2.282              
C              7.524               3.561               -0.478              
C              6.637               2.923               0.582               
C              6.922               3.505               1.956               
C              5.968               2.951               3.003               
N              6.105               3.654               4.308               
H              5.033               2.63                -2.19               
H              7.685               3.777               -2.527              
H              8.466               3.276               -0.313              
H              7.451               4.553               -0.395              
H              5.68                3.092               0.35                
H              6.81                1.94                0.603               
H              7.852               3.27                2.219               
H              6.812               4.493               1.918               
H              5.026               3.053               2.671               
H              6.16                1.974               3.134               
H              6.044               2.988               5.051               
H              6.991               4.116               4.344               
H              5.372               4.327               4.4                 
N              8.829               1.483               -2.376              
C              9.318               0.148               -2.717              
C              9.547               -0.709              -1.475              
O              9.858               -0.193              -0.396              
C              10.593              0.244               -3.569              
C              11.744              1.013               -2.926              
C              12.769              0.113               -2.256              
H              9.452               2.304               -2.251              
H              8.612               -0.307              -3.278              
H              10.915              -0.687              -3.768              
H              10.364              0.697               -4.437              
H              12.206              1.548               -3.636              
H              11.367              1.635               -2.237              
O              13.731              -0.33               -2.887              
N              12.583              -0.151              -0.975              
H              13.22               -0.756              -0.464              
H              11.782              0.266               -0.496              
N              9.376               -2.017              -1.64               
C              9.549               -2.976              -0.55               
C              10.988              -3.486              -0.505              
O              11.881              -2.92               -1.131              
C              8.603               -4.169              -0.732              
C              9.053               -5.103              -1.834              
O              9.22                -4.647              -2.983              
O              9.263               -6.293              -1.54               
H              9.109               -2.3                -2.609              
H              9.385               -2.482              0.31                
H              8.577               -4.67               0.125               
H              7.704               -3.814              -0.957              
N              11.198              -4.566              0.236               
C              12.504              -5.213              0.318               
C              12.93               -5.736              -1.051              
O              14.105              -5.659              -1.423              
C              12.447              -6.364              1.33                
C              13.766              -7.105              1.469               
O              14.121              -7.885              0.561               
O              14.437              -6.935              2.506               
H              10.359              -4.91               0.75                
H              13.17               -4.509              0.584               
H              12.201              -5.981              2.215               
H              11.751              -7.005              1.026               
N              11.969              -6.244              -1.813              
C              12.249              -6.79               -3.134              
C              12.463              -5.671              -4.148              
O              12.926              -5.91               -5.269              
C              11.112              -7.701              -3.595              
C              10.81               -8.851              -2.643              
C              12.044              -9.692              -2.354              
N              11.719              -10.891             -1.583              
C              12.286              -11.209             -0.417              
N              13.195              -10.409             0.136               
N              11.939              -12.326             0.205               
H              11.019              -6.218              -1.393              
H              13.088              -7.345              -3.087              
H              10.287              -7.151              -3.684              
H              11.361              -8.09               -4.477              
H              10.473              -8.485              -1.777              
H              10.118              -9.445              -3.05               
H              12.447              -9.96               -3.224              
H              12.685              -9.132              -1.837              
H              11.025              -11.517             -1.953              
H              13.45               -9.551              -0.303              
H              13.626              -10.672             1.004               
H              11.235              -12.919             -0.195              
H              12.372              -12.579             1.068               
N              12.098              -4.456              -3.761              
C              12.395              -3.29               -4.57               
C              11.268              -2.902              -5.501              
O              11.476              -2.116              -6.426              
H              11.596              -4.417              -2.855              
H              12.61               -2.503              -3.959              
H              13.236              -3.467              -5.118              
N              10.075              -3.43               -5.268              
C              8.946               -3.115              -6.127              
C              8.124               -4.37               -6.446              
C              7.246               -4.861              -5.303              
C              6.504               -6.135              -5.678              
N              5.778               -5.991              -6.944              
C              6.081               -6.669              -8.05               
N              7.043               -7.585              -8.025              
N              5.42                -6.437              -9.179              
H              10.022              -4.061              -4.453              
H              9.289               -2.757              -7                  
H              7.533               -4.165              -7.223              
H              8.757               -5.103              -6.686              
H              7.814               -5.054              -4.508              
H              6.571               -4.163              -5.08               
H              7.171               -6.869              -5.765              
H              5.856               -6.342              -4.951              
H              5.012               -5.347              -6.977              
H              7.535               -7.794              -7.186              
H              7.278               -8.079              -8.872              
H              4.678               -5.761              -9.184              
H              5.656               -6.929              -10.011             
H              8.32052             -2.35092            -5.65807            
