262
2.xyz
C              14.581              5.746               -12.872             
O              13.324              5.88                -12.709             
N              15.464              6.504               -12.259             
C              15.013              7.626               -11.455             
C              14.737              7.324               -9.992              
O              14.594              8.238               -9.196              
H              16.45               6.247               -12.391             
H              15.711              8.38                -11.512             
H              14.162              8.02                -11.878             
N              14.721              6.043               -9.605              
C              14.569              5.723               -8.178              
C              15.807              6.099               -7.365              
O              16.975              5.945               -7.809              
C              14.312              4.242               -8.015              
C              12.925              3.775               -8.487              
C              12.574              2.454               -7.855              
O              12.229              2.492               -6.667              
O              12.636              1.402               -8.541              
H              14.818              5.35                -10.345             
H              13.764              6.212               -7.81               
H              14.978              3.749               -8.552              
H              14.379              4.017               -7.057              
H              12.274              4.436               -8.196              
H              12.964              3.652               -9.451              
N              15.568              6.614               -6.18               
C              16.658              6.866               -5.262              
C              17.075              5.551               -4.62               
O              16.233              4.671               -4.367              
C              16.206              7.809               -4.166              
C              17.341              8.578               -3.618              
C              17.555              9.816               -4.466              
N              17.876              10.773              -3.474              
C              17.215              11.87               -3.167              
N              16.176              12.319              -3.856              
N              17.687              12.562              -2.164              
H              14.577              6.815               -5.97               
H              17.438              7.236               -5.769              
H              15.544              8.436               -4.554              
H              15.8                7.268               -3.443              
H              17.149              8.875               -2.691              
H              18.176              8.043               -3.65               
H              18.304              9.653               -5.045              
H              16.721              10.028              -4.895              
H              18.735              10.602              -2.912              
H              15.858              11.785              -4.649              
H              15.72               13.16               -3.599              
H              18.482              12.294              -1.631              
H              17.219              13.436              -1.899              
N              18.374              5.423               -4.36               
C              18.91               4.224               -3.746              
C              19.876              4.619               -2.65               
O              20.77               5.507               -2.835              
C              19.648              3.299               -4.798              
C              18.717              2.964               -5.999              
C              20.275              2.028               -4.098              
C              19.475              2.263               -7.133              
H              18.953              6.242               -4.631              
H              18.141              3.765               -3.301              
H              20.423              3.808               -5.143              
H              17.998              2.371               -5.677              
H              18.344              3.811               -6.342              
H              20.809              1.541               -4.773              
H              20.846              2.341               -3.354              
H              19.532              1.468               -3.763              
H              19.861              1.414               -6.784              
H              18.838              2.071               -7.874              
H              20.202              2.864               -7.453              
N              19.709              3.951               -1.51               
C              20.638              4.055               -0.393              
C              21.764              3.044               -0.622              
O              21.515              1.833               -0.702              
C              19.935              3.721               0.928               
O              18.912              4.689               1.166               
C              20.951              3.747               2.081               
H              18.855              3.348               -1.488              
H              21.034              4.967               -0.387              
H              19.495              2.806               0.846               
H              21.604              2.998               1.966               
H              21.439              4.62                2.075               
H              20.469              3.639               2.951               
H              19.105              5.536               0.659               
N              22.985              3.544               -0.745              
C              24.119              2.633               -0.972              
C              24.622              2.103               0.379               
O              24.88               2.851               1.303               
C              25.251              3.327               -1.745              
C              24.885              3.897               -3.114              
C              26.112              4.633               -3.726              
C              24.287              2.822               -4.092              
H              23.071              4.558               -0.673              
H              23.801              1.859               -1.515              
H              25.58               4.082               -1.184              
H              25.977              2.66                -1.882              
H              24.142              4.549               -3.017              
H              26.857              3.981               -3.822              
H              25.853              4.996               -4.615              
H              26.376              5.372               -3.115              
H              23.464              2.451               -3.679              
H              24.077              3.269               -4.953              
H              24.966              2.11                -4.222              
N              24.725              0.792               0.489               
C              25.171              0.172               1.729               
C              26.621              -0.191              1.695               
O              27.329              0.026               2.693               
C              24.371              -1.103              2.03                
C              22.858              -0.839              2.226               
C              22.137              -2.125              2.384               
C              22.577              0.067               3.461               
H              24.468              0.255               -0.36               
H              25.013              0.832               2.485               
H              24.463              -1.712              1.266               
H              24.709              -1.489              2.865               
H              22.527              -0.343              1.424               
H              22.483              -2.629              3.184               
H              21.151              -1.965              2.512               
H              22.261              -2.703              1.568               
H              23.037              0.939               3.326               
H              21.594              0.202               3.538               
H              22.928              -0.387              4.274               
N              27.066              -0.788              0.6                 
C              28.481              -1.087              0.445               
C              28.867              -1.195              -1.009              
O              28.016              -1.44               -1.863              
C              28.889              -2.357              1.208               
C              28.545              -3.66               0.572               
C              28.908              -4.791              1.548               
N              30.269              -5.266              1.347               
C              30.624              -6.543              1.219               
N              29.719              -7.516              1.308               
N              31.898              -6.845              1.015               
H              26.348              -1.013              -0.106              
H              29.017              -0.343              0.872               
H              29.889              -2.317              1.344               
H              28.451              -2.315              2.116               
H              27.576              -3.719              0.398               
H              29.073              -3.798              -0.249              
H              28.81               -4.434              2.472               
H              28.266              -5.536              1.395               
H              31.007              -4.573              1.301               
H              28.756              -7.298              1.452               
H              30.008              -8.472              1.228               
H              32.582              -6.118              0.938               
H              32.181              -7.803              0.936               
N              30.156              -1.003              -1.289              
C              30.683              -1.309              -2.617              
C              31.4                -2.65               -2.54               
O              32.465              -2.764              -1.908              
C              31.633              -0.229              -3.124              
C              31.994              -0.527              -4.547              
C              32.88               0.465               -5.16               
H              30.725              -0.633              -0.514              
H              29.913              -1.408              -3.24               
H              31.175              0.641               -3.085              
H              32.451              -0.243              -2.576              
H              32.438              -1.438              -4.578              
H              31.137              -0.591              -5.085              
O              33.549              1.266               -4.481              
N              32.933              0.419               -6.479              
H              33.526              1.095               -7.013              
H              32.396              -0.277              -6.983              
N              30.81               -3.651              -3.153              
C              31.205              -5.027              -3.034              
C              32.527              -5.261              -3.778              
O              33.452              -5.917              -3.265              
C              30.105              -5.965              -3.597              
C              30.594              -7.429              -3.543              
C              28.807              -5.794              -2.819              
H              29.991              -3.346              -3.762              
H              31.365              -5.238              -2.065              
H              29.978              -5.744              -4.552              
H              29.808              -8.027              -3.417              
H              31.055              -7.647              -4.399              
H              31.226              -7.53               -2.78               
H              28.708              -6.551              -2.173              
H              28.833              -4.928              -2.321              
H              28.038              -5.793              -3.457              
N              32.604              -4.723              -4.993              
C              33.834              -4.8                -5.776              
C              33.844              -3.662              -6.789              
O              33.098              -2.721              -6.61               
C              33.954              -6.163              -6.433              
C              32.931              -6.402              -7.535              
O              32.165              -5.486              -7.851              
O              32.911              -7.533              -8.075              
H              31.741              -4.259              -5.323              
H              34.596              -4.643              -5.149              
H              34.867              -6.241              -6.83               
H              33.83               -6.862              -5.732              
N              34.692              -3.731              -7.822              
C              34.826              -2.64               -8.788              
C              33.563              -2.377              -9.607              
O              33.425              -1.286              -10.175             
C              36.031              -2.881              -9.724              
C              35.802              -3.899              -10.882             
C              35.879              -5.362              -10.437             
O              35.963              -5.642              -9.225              
O              35.817              -6.247              -11.32              
H              35.237              -4.613              -7.875              
H              35.089              -1.787              -8.297              
H              36.265              -2.019              -10.144             
H              36.773              -3.233              -9.178              
H              34.903              -3.741              -11.24              
H              36.505              -3.751              -11.55              
N              32.674              -3.376              -9.673              
C              31.502              -3.324              -10.541             
C              30.139              -3.279              -9.837              
O              29.146              -2.998              -10.506             
C              31.508              -4.512              -11.527             
C              32.489              -4.314              -12.664             
H              32.893              -4.185              -9.054              
H              31.574              -2.461              -11.09              
H              31.761              -5.33               -11.022             
H              30.592              -4.604              -11.903             
O              32.872              -3.184              -12.995             
N              32.887              -5.386              -13.262             
H              32.559              -6.298              -12.991             
H              33.549              -5.333              -14.03              
N              30.07               -3.568              -8.533              
C              28.737              -3.787              -7.858              
C              28.607              -3.085              -6.53               
O              29.558              -3.149              -5.708              
C              28.488              -5.28               -7.62               
C              28.383              -6.075              -8.866              
C              29.4                -6.584              -9.586              
C              27.182              -6.454              -9.527              
N              28.901              -7.283              -10.692             
C              27.542              -7.188              -10.684             
C              25.821              -6.213              -9.272              
C              26.581              -7.736              -11.574             
C              24.854              -6.743              -10.161             
C              25.248              -7.477              -11.311             
H              30.96               -3.629              -8.035              
H              28.038              -3.414              -8.491              
H              29.245              -5.647              -7.089              
H              27.633              -5.383              -7.121              
H              30.372              -6.492              -9.385              
H              29.458              -7.762              -11.359             
H              25.526              -5.684              -8.487              
H              26.878              -8.283              -12.353             
H              23.899              -6.595              -9.971              
H              24.544              -7.806              -11.931             
N              27.447              -2.449              -6.31               
C              27.054              -1.996              -4.971              
C              26.377              -0.628              -5.028              
C              27.281              0.526               -5.311              
C              27.143              1.249               -6.501              
C              28.286              0.925               -4.391              
C              27.949              2.342               -6.76               
C              29.076              2.026               -4.651              
C              28.912              2.705               -5.859              
O              29.74               3.776               -6.161              
H              26.864              -2.309              -7.155              
H              27.873              -2.015              -4.387              
H              25.67               -0.663              -5.743              
H              25.926              -0.47               -4.142              
H              26.455              0.969               -7.168              
H              28.408              0.399               -3.56               
H              27.822              2.866               -7.61               
H              29.754              2.337               -3.994              
H              29.49               4.549               -5.584              
H              14.9747             5.00404             -13.5176            
H              26.3129             -2.65954            -4.55377            
