254
2.xyz
C              3.039               -3.355              -14.849             
O              3.928               -2.856              -15.558             
N              2.466               -2.7                -13.843             
C              2.905               -1.341              -13.527             
C              4.349               -1.357              -13.022             
O              5.131               -0.472              -13.357             
C              2                   -0.706              -12.476             
H              1.733               -3.203              -13.339             
H              2.865               -0.785              -14.361             
H              1.045               -0.876              -12.713             
H              2.198               -1.105              -11.582             
H              2.166               0.279               -12.446             
N              4.695               -2.344              -12.203             
C              6.067               -2.454              -11.699             
C              7.026               -2.728              -12.866             
O              8.11                -2.149              -12.925             
C              6.153               -3.526              -10.593             
C              5.419               -3.002              -9.341              
C              7.602               -3.805              -10.218             
C              5.183               -4.06               -8.254              
H              3.942               -3.004              -11.96              
H              6.308               -1.554              -11.34              
H              5.679               -4.331              -10.907             
H              5.956               -2.258              -8.949              
H              4.532               -2.643              -9.627              
H              7.632               -4.49               -9.492              
H              8.094               -4.146              -11.018             
H              8.032               -2.962              -9.898              
H              6.064               -4.414              -7.955              
H              4.707               -3.634              -7.49               
H              4.63                -4.794              -8.636              
N              6.634               -3.599              -13.79              
C              7.483               -3.832              -14.962             
C              7.731               -2.508              -15.688             
O              8.857               -2.167              -16.033             
C              6.834               -4.867              -15.92              
C              7.645               -4.929              -17.224             
C              6.841               -6.274              -15.264             
H              5.742               -4.065              -13.622             
H              8.365               -4.18               -14.644             
H              5.935               -4.534              -16.157             
H              7.713               -4.012              -17.61              
H              8.557               -5.28               -17.025             
H              7.182               -5.534              -17.868             
H              7.038               -6.168              -14.295             
H              5.945               -6.686              -15.394             
H              7.544               -6.823              -15.704             
N              6.662               -1.734              -15.918             
C              6.829               -0.45               -16.623             
C              7.747               0.486               -15.861             
O              8.59                1.149               -16.445             
C              5.493               0.257               -16.875             
C              4.64                -0.439              -17.911             
O              5.198               -1.189              -18.716             
O              3.41                -0.192              -17.891             
H              5.769               -2.093              -15.58              
H              7.273               -0.659              -17.503             
H              4.996               0.284               -16.013             
H              5.691               1.181               -17.187             
N              7.577               0.578               -14.548             
C              8.451               1.456               -13.776             
C              9.905               1.032               -13.873             
O              10.789              1.855               -14.026             
C              8.031               1.471               -12.295             
C              6.688               2.136               -12.019             
C              6.318               1.997               -10.557             
H              6.825               0.013               -14.15              
H              8.372               2.387               -14.162             
H              7.983               0.523               -11.969             
H              8.735               1.959               -11.77              
H              6.757               3.099               -12.242             
H              5.994               1.693               -12.57              
O              6.715               2.814               -9.728              
N              5.603               0.926               -10.218             
H              5.332               0.761               -9.256              
H              5.33                0.27                -10.95              
N              10.132              -0.281              -13.778             
C              11.491              -0.834              -13.83              
C              12.121              -0.619              -15.211             
O              13.33               -0.475              -15.304             
C              11.458              -2.311              -13.46              
H              9.283               -0.864              -13.667             
H              12.057              -0.364              -13.144             
H              12.229              -2.78               -13.89              
H              11.522              -2.408              -12.467             
H              10.602              -2.716              -13.779             
N              11.299              -0.601              -16.259             
C              11.832              -0.375              -17.609             
C              12.037              1.099               -17.868             
O              12.587              1.467               -18.908             
C              10.896              -0.957              -18.66              
C              10.93               -2.481              -18.727             
C              10.047              -3.007              -19.85              
N              10.107              -4.463              -19.896             
C              9.127               -5.222              -20.344             
N              8.028               -4.661              -20.814             
N              9.213               -6.549              -20.258             
H              10.307              -0.752              -16.051             
H              12.717              -0.85               -17.684             
H              9.967               -0.682              -18.443             
H              11.163              -0.607              -19.55              
H              11.863              -2.784              -18.896             
H              10.597              -2.857              -17.868             
H              9.118               -2.719              -19.672             
H              10.381              -2.634              -20.703             
H              10.945              -4.909              -19.566             
H              7.92                -3.672              -20.861             
H              7.269               -5.249              -21.139             
H              10.039              -6.962              -19.867             
H              8.466               -7.122              -20.579             
N              11.588              1.954               -16.949             
C              11.768              3.407               -17.095             
C              12.632              3.98                -15.981             
O              12.347              5.036               -15.443             
C              10.412              4.115               -17.166             
C              10.544              5.577               -17.549             
H              11.111              1.519               -16.14              
H              12.261              3.554               -17.961             
H              9.854               3.656               -17.849             
H              9.981               4.058               -16.271             
O              11.452              5.957               -18.286             
N              9.622               6.39                -17.064             
H              8.893               6.038               -16.475             
H              9.648               7.369               -17.283             
N              13.664              3.23                -15.607             
C              14.63               3.728               -14.648             
C              14.44               3.594               -13.157             
O              15.303              4.053               -12.406             
H              13.711              2.297               -16.047             
H              15.576              3.315               -14.897             
H              14.804              4.753               -14.866             
N              13.332              3.03                -12.705             
C              13.16               2.866               -11.268             
C              14.151              1.821               -10.752             
O              14.475              0.857               -11.448             
C              11.744              2.434               -10.973             
H              12.652              2.739               -13.408             
H              13.352              3.737               -10.814             
H              11.104              3.152               -11.252             
H              11.533              1.594               -11.476             
H              11.637              2.264               -9.992              
N              14.641              2.026               -9.535              
C              15.574              1.109               -8.893              
C              14.781              -0.152              -8.576              
O              13.82               -0.136              -7.794              
C              16.1                1.772               -7.612              
C              17.157              0.955               -6.928              
O              16.878              -0.202              -6.592              
O              18.27               1.471               -6.716              
H              14.299              2.903               -9.076              
H              16.258              0.862               -9.565              
H              16.481              2.655               -7.865              
H              15.328              1.892               -6.997              
N              15.155              -1.266              -9.201              
C              14.427              -2.524              -9.031              
C              14.483              -3.071              -7.592              
O              13.492              -3.561              -7.09               
C              14.971              -3.575              -10.025             
C              14.107              -4.783              -10.154             
C              13.076              -4.826              -11.073             
C              14.331              -5.911              -9.345              
C              12.3                -5.959              -11.191             
C              13.565              -7.032              -9.458              
C              12.541              -7.066              -10.385             
H              15.991              -1.167              -9.807              
H              13.452              -2.33               -9.225              
H              15.035              -3.137              -10.908             
H              15.859              -3.856              -9.696              
H              12.892              -4.039              -11.653             
H              15.08               -5.871              -8.673              
H              11.549              -5.983              -11.869             
H              13.742              -7.837              -8.866              
H              11.971              -7.882              -10.482             
N              15.64               -2.981              -6.953              
C              15.741              -3.456              -5.576              
C              14.801              -2.654              -4.678              
O              14.184              -3.203              -3.757              
H              16.416              -2.571              -7.481              
H              15.491              -4.425              -5.535              
H              16.682              -3.347              -5.251              
N              14.683              -1.357              -4.928              
C              13.789              -0.56               -4.116              
C              12.341              -0.869              -4.448              
O              11.47               -0.779              -3.57               
C              14.116              0.926               -4.25               
C              15.499              1.246               -3.7                
C              15.906              2.707               -3.812              
C              17.375              2.867               -3.366              
N              17.861              4.271               -3.494              
H              15.249              -0.997              -5.701              
H              13.949              -0.772              -3.143              
H              14.097              1.166               -5.208              
H              13.447              1.441               -3.736              
H              15.531              0.976               -2.723              
H              16.183              0.681               -4.19               
H              15.838              2.994               -4.751              
H              15.344              3.251               -3.215              
H              17.447              2.575               -2.408              
H              17.944              2.264               -3.932              
H              18.835              4.264               -3.715              
H              17.355              4.73                -4.223              
H              17.716              4.751               -2.63               
N              12.039              -1.222              -5.703              
C              10.678              -1.65               -6.032              
C              10.391              -2.951              -5.274              
O              9.26                -3.182              -4.841              
C              10.505              -1.913              -7.541              
C              10.451              -0.656              -8.425              
C              10.592              -1.095              -9.901              
C              9.141               0.137               -8.202              
H              12.808              -1.168              -6.376              
H              10.039              -0.956              -5.718              
H              11.277              -2.455              -7.844              
H              9.654               -2.402              -7.667              
H              11.203              -0.061              -8.193              
H              9.842               -1.71               -10.127             
H              10.558              -0.286              -10.482             
H              11.464              -1.563              -10.016             
H              9.091               0.414               -7.246              
H              9.147               0.94                -8.792              
H              8.368               -0.449              -8.429              
N              11.391              -3.824              -5.131              
C              11.181              -5.065              -4.37               
C              10.957              -4.739              -2.882              
O              10.053              -5.29               -2.268              
C              12.378              -5.99               -4.529              
H              12.276              -3.566              -5.577              
H              10.364              -5.524              -4.72               
H              12.839              -5.795              -5.395              
H              13.016              -5.844              -3.773              
H              12.069              -6.941              -4.524              
N              11.777              -3.866              -2.322              
C              11.601              -3.501              -0.916              
C              10.177              -3.018              -0.695              
O              9.499               -3.448              0.26                
C              12.63               -2.41               -0.504              
C              14.018              -3.032              -0.357              
C              12.21               -1.724              0.795               
C              15.137              -2.024              -0.386              
H              12.512              -3.484              -2.927              
H              11.704              -4.346              -0.393              
H              12.663              -1.74               -1.233              
H              14.049              -3.531              0.507               
H              14.149              -3.682              -1.105              
H              12.866              -1.006              1.017               
H              11.303              -1.325              0.68                
H              12.188              -2.396              1.532               
H              15.021              -1.374              0.365               
H              16.014              -2.494              -0.286              
H              15.122              -1.532              -1.257              
N              9.676               -2.175              -1.593              
H              10.31               -1.96               -2.388              
H              2.70815             -4.35242            -15.0137            
H              8.75245             -1.78573            -1.49447            
