263
0.xyz
N              -20.076             -15.774             -1.365              
C              -19.144             -16.822             -0.89               
C              -18.117             -16.254             0.056               
O              -18.443             -15.432             0.912               
H              -20.988             -16.165             -1.473              
H              -19.677             -17.542             -0.429              
H              -18.688             -17.233             -1.689              
H              -20.108             -15.031             -0.698              
H              -19.758             -15.421             -2.243              
N              -16.877             -16.686             -0.088              
C              -15.792             -16.137             0.706               
C              -15.509             -14.698             0.295               
O              -15.641             -14.336             -0.878              
C              -14.541             -16.984             0.553               
H              -16.749             -17.431             -0.798              
H              -16.059             -16.146             1.676               
H              -14.786             -17.883             0.19                
H              -13.906             -16.535             -0.076              
H              -14.1               -17.096             1.444               
N              -15.134             -13.873             1.255               
C              -14.783             -12.497             0.966               
C              -13.307             -12.402             0.581               
O              -12.417             -12.457             1.44                
C              -15.097             -11.574             2.16                
O              -14.694             -12.196             3.388               
C              -16.581             -11.242             2.217               
H              -15.113             -14.285             2.207               
H              -15.33              -12.178             0.186               
H              -14.566             -10.707             2.054               
H              -17.119             -12.044             1.949               
H              -16.834             -10.973             3.149               
H              -16.785             -10.486             1.591               
H              -15                 -13.153             3.411               
N              -13.058             -12.285             -0.717              
C              -11.704             -12.309             -1.251              
C              -10.904             -11.084             -0.822              
O              -11.452             -9.99               -0.668              
C              -11.738             -12.417             -2.768              
H              -13.906             -12.176             -1.314              
H              -11.233             -13.135             -0.908              
H              -12.544             -12.938             -3.048              
H              -11.779             -11.502             -3.168              
H              -10.914             -12.883             -3.089              
N              -9.61               -11.28              -0.606              
C              -8.718              -10.177             -0.282              
C              -8.271              -9.459              -1.552              
O              -7.606              -10.035             -2.411              
C              -7.492              -10.643             0.542               
C              -7.9                -10.911             1.985               
C              -6.872              -11.897             -0.054              
H              -9.297              -12.267             -0.687              
H              -9.224              -9.517              0.283               
H              -6.84               -9.895              0.556               
H              -8.713              -10.373             2.207               
H              -8.102              -11.883             2.099               
H              -7.152              -10.652             2.596               
H              -7.2                -12.015             -0.991              
H              -5.876              -11.805             -0.056              
H              -7.135              -12.69              0.496               
N              -8.656              -8.198              -1.651              
C              -8.411              -7.393              -2.831              
C              -8.752              -5.951              -2.515              
O              -8.576              -5.51               -1.379              
C              -9.257              -7.909              -4.005              
O              -8.913              -7.269              -5.226              
H              -9.153              -7.832              -0.803              
H              -7.436              -7.441              -3.048              
H              -9.106              -8.89               -4.1                
H              -10.219             -7.732              -3.807              
H              -8.032              -7.614              -5.544              
N              -9.213              -5.241              -3.53               
C              -9.558              -3.828              -3.427              
C              -8.28               -3.023              -3.304              
O              -7.899              -2.586              -2.214              
C              -10.488             -3.554              -2.239              
C              -11.793             -4.327              -2.298              
C              -12.605             -4.198              -1.031              
O              -13.37              -3.219              -0.905              
O              -12.491             -5.08               -0.159              
H              -9.311              -5.783              -4.425              
H              -10.061             -3.543              -4.242              
H              -10.015             -3.826              -1.422              
H              -10.705             -2.597              -2.246              
H              -12.332             -3.966              -3.037              
H              -11.583             -5.28               -2.423              
N              -7.618              -2.839              -4.434              
C              -6.305              -2.217              -4.46               
C              -6.318              -1.019              -5.398              
O              -6.452              -1.17               -6.611              
C              -5.256              -3.222              -4.977              
C              -5.248              -4.522              -4.238              
C              -5.347              -5.783              -4.75               
C              -5.158              -4.667              -2.836              
N              -5.302              -6.708              -3.731              
C              -5.2                -6.038              -2.538              
C              -5.045              -3.749              -1.812              
C              -5.133              -6.512              -1.23               
C              -4.989              -4.207              -0.515              
C              -5.038              -5.579              -0.229              
H              -8.111              -3.173              -5.289              
H              -6.106              -1.877              -3.538              
H              -5.451              -3.42               -5.93               
H              -4.355              -2.816              -4.88               
H              -5.439              -6.006              -5.717              
H              -5.337              -7.697              -3.84               
H              -5.003              -2.766              -1.998              
H              -5.155              -7.496              -1.043              
H              -4.913              -3.553              0.233               
H              -5.002              -5.873              0.725               
N              -6.197              0.166               -4.839              
C              -6.143              1.365               -5.647              
C              -4.722              1.823               -5.813              
O              -3.765              1.182               -5.372              
C              -7.007              2.519               -5.054              
O              -7.17               3.636               -5.943              
C              -6.443              3.007               -3.732              
H              -6.145              0.165               -3.804              
H              -6.524              1.155               -6.557              
H              -7.946              2.142               -4.84               
H              -5.805              2.327               -3.361              
H              -5.956              3.873               -3.867              
H              -7.188              3.149               -3.075              
H              -6.328              4.184               -5.971              
N              -4.638              2.951               -6.429              
C              -3.381              3.58                -6.776              
C              -3.184              4.832               -5.942              
O              -4.023              5.735               -5.953              
C              -3.383              3.967               -8.256              
C              -3.795              2.846               -9.193              
C              -4.21               3.369               -10.551             
O              -3.331              3.733               -11.355             
O              -5.434              3.432               -10.815             
H              -5.569              3.395               -6.669              
H              -2.622              2.943               -6.61               
H              -4.026              4.705               -8.371              
H              -2.467              4.237               -8.496              
H              -3.025              2.255               -9.324              
H              -4.567              2.384               -8.803              
N              -2.096              4.877               -5.209              
C              -1.746              6.06                -4.456              
C              -0.314              6.462               -4.755              
O              0.63                5.724               -4.478              
C              -1.978              5.844               -2.959              
C              -3.249              6.488               -2.463              
C              -4.486              5.936               -2.75               
C              -3.21               7.666               -1.732              
C              -5.651              6.534               -2.317              
C              -4.367              8.274               -1.301              
C              -5.587              7.704               -1.594              
O              -6.744              8.312               -1.166              
H              -1.521              4.009               -5.216              
H              -2.348              6.813               -4.742              
H              -2.034              4.867               -2.79               
H              -1.213              6.24                -2.465              
H              -4.537              5.086               -3.283              
H              -2.324              8.078               -1.515              
H              -6.54               6.118               -2.527              
H              -4.325              9.128               -0.776              
H              -7.412              7.611               -0.921              
N              -0.17               7.629               -5.355              
C              1.128               8.119               -5.783              
C              1.699               9.062               -4.739              
O              1.081               10.077              -4.405              
C              1.003               8.856               -7.115              
C              0.202               8.107               -8.163              
C              0.091               8.918               -9.434              
C              -0.914              8.325               -10.407             
N              -1.035              9.146               -11.637             
H              -1.056              8.162               -5.493              
H              1.754               7.34                -5.892              
H              0.557               9.733               -6.945              
H              1.923               9.011               -7.472              
H              0.659               7.242               -8.366              
H              -0.714              7.928               -7.808              
H              -0.201              9.845               -9.204              
H              0.983               8.948               -9.881              
H              -0.618              7.399               -10.655             
H              -1.809              8.27                -9.956              
H              -1.071              10.115              -11.39              
H              -0.244              8.982               -12.227             
H              -1.872              8.896               -12.124             
N              2.855               8.722               -4.214              
C              3.539               9.585               -3.275              
C              4.484               10.53               -4.014              
O              4.786               10.321              -5.193              
C              4.295               8.757               -2.225              
O              5.032               7.707               -2.869              
C              3.321               8.167               -1.213              
H              3.227               7.801               -4.524              
H              2.858               10.142              -2.788              
H              4.962               9.362               -1.744              
H              2.391               8.482               -1.414              
H              3.347               7.166               -1.261              
H              3.574               8.459               -0.288              
H              6.018               7.901               -2.833              
N              4.95                11.562              -3.322              
C              5.712               12.647              -3.947              
C              7.03                12.179              -4.572              
O              7.607               12.885              -5.399              
C              5.975               13.75               -2.932              
H              4.731               11.538              -2.303              
H              5.142               13.062              -4.678              
H              6.85                13.585              -2.478              
H              6.004               14.634              -3.399              
H              5.244               13.758              -2.25               
N              7.507               11.007              -4.173              
C              8.763               10.472              -4.693              
C              8.538               9.733               -6.011              
O              9.484               9.255               -6.637              
C              9.415               9.534               -3.673              
C              8.652               8.236               -3.505              
O              7.579               8.259               -2.868              
O              9.13                7.197               -4.01               
H              6.922               10.511              -3.472              
H              9.361               11.256              -4.894              
H              10.333              9.328               -3.99               
H              9.445               10.004              -2.8                
N              7.277               9.637               -6.427              
C              6.953               8.961               -7.671              
C              6.784               7.468               -7.475              
O              7.095               6.676               -8.363              
H              6.576               10.072              -5.805              
H              6.098               9.348               -8.051              
H              7.688               9.129               -8.346              
N              6.296               7.088               -6.308              
C              6.125               5.686               -5.972              
C              4.685               5.259               -6.212              
O              3.752               5.938               -5.785              
C              6.489               5.467               -4.502              
C              6.635               4.008               -4.092              
C              7.829               3.342               -4.775              
C              9.14                4.045               -4.436              
N              10.326              3.397               -5.069              
H              6.049               7.866               -5.662              
H              6.727               5.132               -6.557              
H              7.358               5.931               -4.323              
H              5.772               5.881               -3.939              
H              6.764               3.958               -3.101              
H              5.804               3.512               -4.344              
H              7.887               2.398               -4.468              
H              7.696               3.378               -5.76               
H              9.084               5.001               -4.746              
H              9.259               4.043               -3.436              
H              10.444              2.481               -4.688              
H              10.18               3.335               -6.055              
H              11.14               3.946               -4.883              
N              4.505               4.154               -6.923              
C              3.184               3.581               -7.102              
C              2.872               2.653               -5.94               
O              3.266               1.486               -5.936              
C              3.072               2.801               -8.433              
O              3.288               3.68                -9.545              
C              1.709               2.133               -8.566              
H              5.369               3.748               -7.328              
H              2.509               4.322               -7.105              
H              3.796               2.08                -8.451              
H              1.823               1.19                -8.886              
H              1.247               2.125               -7.677              
H              1.147               2.638               -9.224              
H              4.044               4.313               -9.348              
N              2.205               3.187               -4.935              
H              1.962               4.191               -5.053              
H              1.96145             2.64647             -4.12733            
