173
2.xyz
C              4.806               2.956               13.464              
C              4.87                4.46                13.228              
O              5.897               5.094               13.469              
C              5.026               2.622               14.953              
C              3.889               3.122               15.847              
O              3.344               4.209               15.603              
O              3.549               2.415               16.822              
H              3.898               2.651               13.166              
H              5.086               1.636               15.039              
H              5.869               3.054               15.242              
N              3.767               5.027               12.762              
C              3.699               6.464               12.549              
C              2.59                7.091               13.366              
O              2.004               8.091               12.944              
C              3.555               6.8                 11.064              
C              2.24                6.343               10.484              
H              2.985               4.379               12.57               
H              4.569               6.855               12.878              
H              3.626               7.79                10.959              
H              4.298               6.353               10.569              
O              1.441               5.678               11.146              
N              2.016               6.681               9.23                
H              2.693               7.204               8.71                
H              1.155               6.413               8.782               
N              2.316               6.509               14.536              
C              1.225               7.026               15.379              
C              1.523               8.394               15.984              
O              0.593               9.181               16.227              
C              0.803               6.053               16.462              
O              1.884               5.662               17.283              
H              2.903               5.709               14.785              
H              0.402               7.116               14.793              
H              0.103               6.486               17.035              
H              0.413               5.235               16.031              
H              2.528               5.113               16.751              
N              2.802               8.696               16.198              
C              3.206               10.032              16.626              
C              3.523               10.911              15.423              
O              4.164               10.437              14.481              
C              4.45                9.95                17.503              
C              4.777               11.272              18.151              
O              4.021               11.67               19.065              
O              5.774               11.924              17.743              
H              3.468               7.919               16.038              
H              2.418               10.446              17.095              
H              4.282               9.276               18.212              
H              5.212               9.674               16.931              
N              3.122               12.202              15.455              
C              3.408               13.099              14.324              
C              4.883               13.522              14.145              
O              5.217               14.145              13.125              
C              2.559               14.349              14.631              
C              2.348               14.302              16.102              
C              2.213               12.84               16.436              
H              3.056               12.69               13.449              
H              3.052               15.179              14.36               
H              1.689               14.308              14.136              
H              3.13                14.707              16.587              
H              1.516               14.804              16.358              
H              2.514               12.646              17.365              
H              1.279               12.518              16.305              
N              5.742               13.209              15.104              
C              7.137               13.677              15.033              
C              8.201               12.614              15.01               
O              9.199               12.77               14.307              
C              7.462               14.613              16.186              
C              6.734               15.909              16.079              
H              5.372               12.636              15.871              
H              7.215               14.21               14.157              
H              7.204               14.161              17.037              
H              8.445               14.787              16.179              
O              6.12                16.353              17.048              
N              6.741               16.505              14.884              
H              7.217               16.07               14.119              
H              6.274               17.376              14.757              
N              8.029               11.591              15.838              
C              8.963               10.478              15.915              
C              8.293               9.173               15.502              
O              7.336               8.716               16.149              
C              9.525               10.346              17.327              
C              10.534              11.398              17.675              
C              10.278              12.643              18.193              
C              11.959              11.299              17.547              
N              11.463              13.324              18.393              
C              12.51               12.532              18                  
C              12.825              10.296              17.087              
C              13.911              12.783              18.014              
C              14.212              10.536              17.101              
C              14.739              11.774              17.555              
H              7.167               11.654              16.428              
H              9.709               10.655              15.262              
H              8.781               10.424              17.981              
H              9.976               9.465               17.416              
H              9.373               13.004              18.395              
H              11.542              14.248              18.766              
H              12.479              9.426               16.755              
H              14.257              13.655              18.344              
H              14.826              9.826               16.787              
H              15.725              11.907              17.538              
N              8.821               8.555               14.447              
C              8.264               7.32                13.898              
C              9.188               6.165               14.182              
O              10.378              6.376               14.381              
C              8.083               7.446               12.378              
C              7.002               8.421               11.967              
C              6.134               9.088               12.788              
C              6.662               8.807               10.633              
N              5.286               9.878               12.051              
C              5.583               9.727               10.723              
C              7.159               8.468               9.363               
C              4.995               10.317              9.589               
C              6.584               9.06                8.235               
C              5.502               9.971               8.356               
H              9.663               9.026               14.048              
H              7.394               7.146               14.369              
H              8.932               7.767               11.977              
H              7.832               6.56                12.008              
H              6.118               9.011               13.785              
H              4.569               10.467              12.422              
H              7.906               7.821               9.26                
H              4.236               10.962              9.694               
H              6.938               8.839               7.337               
H              5.113               10.359              7.526               
N              8.647               4.955               14.211              
C              9.47                3.767               14.339              
C              9.735               3.193               12.962              
O              8.81                3.035               12.166              
C              8.818               2.694               15.235              
C              9.786               1.584               15.593              
C              9.203               0.598               16.592              
C              8.824               -0.69               15.909              
N              8.895               -1.861              16.862              
H              7.613               4.935               14.136              
H              10.345              4.017               14.76               
H              8.515               3.135               16.067              
H              8.055               2.306               14.738              
H              10.037              1.085               14.756              
H              10.619              1.988               15.987              
H              9.886               0.407               17.287              
H              8.391               0.999               17                  
H              7.888               -0.624              15.56               
H              9.45                -0.865              15.147              
H              8.819               -1.52               17.794              
H              8.144               -2.483              16.661              
H              9.768               -2.324              16.736              
N              10.999              2.888               12.692              
C              11.353              2.332               11.408              
C              12.421              1.268               11.439              
O              13.055              1.036               12.465              
H              11.67               3.078               13.452              
H              10.509              1.946               10.965              
H              11.656              3.092               10.785              
N              12.582              0.612               10.299              
C              13.661              -0.371              10.081              
C              14.505              -0.065              8.842               
O              13.981              0.289               7.784               
C              13.068              -1.77               9.918               
H              11.881              0.845               9.559               
H              14.266              -0.364              10.893              
H              12.765              -2.107              10.808              
H              12.29               -1.729              9.293               
H              13.764              -2.383              9.548               
N              15.823              -0.236              8.959               
C              16.732              -0.104              7.816               
C              17.129              1.367               7.626               
S              18.134              1.77                6.174               
H              16.147              -0.468              9.92                
H              16.264              -0.442              7.002               
H              16.278              1.91                7.583               
H              17.637              1.655               8.452               
H              17.539              1.878               5.379               
H              17.6189             -0.731638           7.98619             
H              5.52006             2.46686             12.8562             
