364
6.xyz
C              22.74               -2.707              21.98               
C              23.03               -3.632              20.784              
O              23.617              -3.218              19.777              
C              23.766              -2.875              23.117              
C              25.217              -2.746              22.583              
C              23.522              -1.809              24.185              
H              22.799              -1.765              21.662              
H              23.683              -3.799              23.476              
H              25.505              -3.629              22.225              
H              25.232              -2.061              21.861              
H              25.81               -2.469              23.333              
H              23.913              -2.118              25.051              
H              23.958              -0.957              23.901              
H              22.539              -1.669              24.288              
N              22.601              -4.893              20.863              
C              22.749              -5.763              19.682              
C              22.035              -5.201              18.424              
O              22.535              -5.369              17.269              
C              22.275              -7.192              20.013              
C              23.167              -7.913              21.042              
C              22.556              -9.26               21.44               
H              22.193              -5.181              21.744              
H              23.733              -5.826              19.464              
H              21.353              -7.146              20.387              
H              22.277              -7.733              19.175              
H              24.052              -8.075              20.633              
H              23.239              -7.347              21.848              
O              21.359              -9.466              21.272              
N              23.374              -10.168             21.956              
H              23.034              -11.07              22.252              
H              24.365              -9.935              22.049              
N              20.913              -4.496              18.614              
C              20.137              -3.919              17.512              
C              20.919              -2.843              16.72               
O              20.603              -2.575              15.565              
C              18.862              -3.318              18.043              
H              20.638              -4.393              19.617              
H              19.885              -4.659              16.868              
H              18.314              -4.024              18.497              
H              19.074              -2.595              18.704              
H              18.329              -2.926              17.29               
N              21.94               -2.284              17.348              
C              22.74               -1.215              16.739              
C              23.488              -1.781              15.509              
O              23.782              -1.041              14.569              
C              23.719              -0.553              17.77               
C              24.604              0.516               17.097              
C              22.938              0.092               18.952              
H              22.13               -2.659              18.3                
H              22.121              -0.504              16.415              
H              24.327              -1.266              18.1                
H              25.03               1.075               17.803              
H              25.305              0.061               16.554              
H              24.034              1.085               16.51               
H              22.162              0.589               18.58               
H              22.63               -0.635              19.557              
H              23.551              0.71                19.432              
N              23.712              -3.096              15.491              
C              24.353              -3.737              14.306              
C              23.512              -3.682              13.02               
O              24.031              -4.025              11.955              
C              24.797              -5.194              14.605              
S              25.977              -5.408              15.931              
H              23.421              -3.615              16.323              
H              25.227              -3.249              14.132              
H              23.963              -5.717              14.818              
H              25.189              -5.561              13.752              
N              22.231              -3.256              13.097              
C              21.413              -3.014              11.915              
C              21.022              -1.543              11.729              
O              20.156              -1.214              10.934              
C              20.183              -3.919              11.943              
O              19.65               -3.999              13.235              
H              21.891              -3.12               14.072              
H              21.95               -3.293              11.098              
H              19.498              -3.543              11.324              
H              20.452              -4.83               11.638              
H              20.142              -3.376              13.847              
N              21.732              -0.662              12.439              
C              21.47               0.776               12.394              
C              22.456              1.488               11.462              
O              22.718              0.954               10.4                
C              21.382              1.348               13.821              
C              20.137              0.718               14.477              
C              19.876              1.108               15.917              
H              22.484              -1.087              13.023              
H              20.546              0.912               12.021              
H              22.162              1.072               14.325              
H              21.247              2.307               13.773              
H              19.331              0.974               13.921              
H              20.236              -0.288              14.426              
O              20.252              2.19                16.372              
N              19.199              0.218               16.646              
H              18.996              0.402               17.628              
H              18.89               -0.643              16.206              
N              22.917              2.697               11.803              
C              23.568              3.536               10.777              
C              25.003              3.116               10.514              
O              25.813              3.218               11.377              
C              23.552              5.004               11.2                
C              24.188              5.88                10.159              
C              24.137              7.298               10.644              
C              24.931              8.202               9.746               
N              24.727              9.606               10.177              
H              22.788              2.972               12.773              
H              23.038              3.455               9.919               
H              22.61               5.279               11.321              
H              24.06               5.086               12.045              
H              25.134              5.61                10.034              
H              23.683              5.805               9.31                
H              23.189              7.607               10.653              
H              24.519              7.344               11.564              
H              25.896              7.975               9.815               
H              24.617              8.098               8.808               
H              24.774              9.66                11.175              
H              25.439              10.185              9.779               
H              23.83               9.923               9.869               
N              25.297              2.652               9.304               
H              24.531              2.654               8.625               
C              30.05               2.117               18.073              
O              31.001              2.149               18.863              
N              29.544              1.002               17.549              
C              30.151              -0.319              17.822              
C              30.556              -1.002              16.532              
O              30.005              -0.703              15.481              
C              29.177              -1.242              18.602              
C              28.902              -0.633              20.025              
C              27.86               -1.523              17.798              
H              28.713              1.13                16.951              
H              30.977              -0.164              18.374              
H              29.628              -2.104              18.759              
H              28.057              -0.116              19.982              
H              28.824              -1.381              20.671              
H              29.663              -0.043              20.261              
H              27.328              -2.191              18.304              
H              27.364              -0.668              17.712              
H              28.114              -1.875              16.906              
N              31.551              -1.894              16.61               
C              31.877              -2.751              15.441              
C              31.196              -4.086              15.598              
O              31.172              -4.595              16.704              
C              33.376              -2.981              15.348              
H              32.047              -1.936              17.501              
H              31.535              -2.295              14.62               
H              33.837              -2.114              15.159              
H              33.713              -3.353              16.213              
H              33.571              -3.628              14.611              
N              30.661              -4.62               14.507              
C              29.936              -5.922              14.597              
C              30.601              -6.973              13.72               
O              31.182              -6.659              12.69               
C              28.478              -5.746              14.234              
S              27.662              -4.494              15.246              
H              30.775              -4.099              13.638              
H              29.981              -6.225              15.552              
H              28.418              -5.464              13.285              
H              28.009              -6.61               14.374              
N              30.464              -8.245              14.124              
C              31.042              -9.352              13.358              
C              30.245              -10.569             13.706              
O              29.652              -10.648             14.799              
C              32.484              -9.683              13.814              
C              33.487              -8.628              13.429              
C              34.956              -9.087              13.585              
O              35.315              -9.671              14.618              
O              35.741              -8.834              12.662              
H              29.929              -8.368              14.999              
H              30.972              -9.155              12.389              
H              32.467              -9.752              14.792              
H              32.737              -10.524             13.38               
H              33.365              -8.398              12.48               
H              33.375              -7.845              14.016              
N              30.274              -11.527             12.785              
C              29.872              -12.903             13.128              
C              28.549              -13.294             12.536              
O              27.842              -12.493             11.937              
H              30.587              -11.241             11.85               
H              30.596              -13.54              12.807              
H              29.836              -12.985             14.141              
N              28.204              -14.578             12.722              
C              26.836              -15.029             12.52               
C              26.469              -15.81              13.793              
O              27.019              -16.911             14.019              
C              26.699              -15.904             11.259              
C              25.25               -16.372             11.023              
H              28.981              -15.195             13.014              
H              26.256              -14.232             12.5                
H              26.984              -15.372             10.473              
H              27.27               -16.707             11.369              
O              24.318              -15.897             11.667              
N              25.072              -17.306             10.097              
H              25.864              -17.67              9.601               
H              24.157              -17.647             9.894               
N              25.602              -15.239             14.645              
C              24.84               -13.99              14.451              
C              25.735              -12.759             14.46               
O              26.824              -12.785             15.036              
C              23.94               -13.912             15.685              
C              24.263              -15.117             16.529              
C              25.5                -15.731             16.034              
H              24.301              -14.038             13.596              
H              24.115              -13.062             16.202              
H              22.966              -13.918             15.419              
H              24.348              -14.831             17.508              
H              23.477              -15.771             16.497              
H              26.309              -15.443             16.558              
H              25.459              -16.737             16.038              
N              25.254              -11.688             13.831              
C              26.046              -10.435             13.741              
C              25.855              -9.577              14.994              
O              24.776              -9.006              15.218              
C              25.564              -9.686              12.556              
C              26.493              -8.664              11.953              
C              27.776              -9.014              11.507              
C              26.049              -7.36               11.764              
C              28.605              -8.043              10.863              
C              26.835              -6.417              11.145              
C              28.119              -6.765              10.708              
O              28.903              -5.806              10.093              
H              24.316              -11.792             13.423              
H              27.015              -10.689             13.676              
H              25.327              -10.348             11.82               
H              24.702              -9.201              12.799              
H              28.122              -9.93               11.631              
H              25.133              -7.107              12.087              
H              29.502              -8.307              10.544              
H              26.504              -5.485              11.002              
H              29.586              -5.48               10.743              
N              26.898              -9.487              15.806              
C              26.789              -8.94               17.16               
C              27.947              -7.984              17.46               
O              28.981              -8.042              16.785              
C              26.781              -10.088             18.225              
C              25.478              -10.931             18.108              
C              28.031              -10.968             18.129              
H              27.795              -9.834              15.406              
H              25.933              -8.415              17.218              
H              26.764              -9.666              19.119              
H              25.722              -11.856             17.839              
H              25.024              -10.937             18.993              
H              24.892              -10.515             17.421              
H              28.049              -11.41              17.234              
H              28.841              -10.396             18.242              
H              27.999              -11.658             18.849              
N              27.772              -7.09               18.441              
C              28.866              -6.17               18.776              
C              30.081              -6.894              19.346              
O              29.951              -7.753              20.265              
C              28.248              -5.239              19.85               
C              26.791              -5.382              19.707              
C              26.562              -6.823              19.249              
H              29.126              -5.618              17.967              
H              28.563              -5.52               20.766              
H              28.548              -4.29               19.692              
H              26.317              -5.222              20.58               
H              26.424              -4.744              19.022              
H              26.513              -7.439              20.025              
H              25.743              -6.893              18.692              
N              31.258              -6.52               18.843              
C              32.538              -7.046              19.366              
C              33.54               -5.996              19.875              
O              34.531              -6.334              20.527              
C              33.231              -7.987              18.34               
C              32.331              -9.175              18.078              
C              33.577              -7.286              17.02               
H              31.206              -5.838              18.064              
H              32.317              -7.668              20.149              
H              34.056              -8.326              18.765              
H              31.376              -8.876              18.05               
H              32.571              -9.594              17.201              
H              32.443              -9.852              18.808              
H              33.268              -6.338              17.066              
H              34.565              -7.316              16.887              
H              33.117              -7.759              16.272              
N              33.292              -4.73               19.56               
C              34.256              -3.686              19.908              
C              33.456              -2.402              20.069              
O              32.523              -2.165              19.296              
C              35.244              -3.52               18.739              
C              36.023              -2.24               18.753              
N              35.815              -1.233              17.839              
C              37.006              -1.801              19.578              
C              36.629              -0.22               18.102              
N              37.357              -0.54               19.153              
H              32.405              -4.556              19.073              
H              34.667              -3.913              20.778              
H              35.897              -4.289              18.756              
H              34.729              -3.568              17.872              
H              37.401              -2.296              20.345              
H              36.681              0.631               17.591              
H              38.055              0.042               19.579              
N              33.815              -1.604              21.06               
C              33.165              -0.303              21.233              
C              34.08               0.751               20.614              
O              35.219              0.914               21.061              
C              32.958              -0.044              22.697              
C              32.145              1.186               22.96               
C              32.756              2.444               23.027              
C              30.787              1.069               23.138              
C              31.968              3.595               23.264              
C              29.997              2.208               23.371              
C              30.601              3.461               23.431              
H              34.559              -1.958              21.675              
H              32.334              -0.318              20.689              
H              32.476              -0.813              23.087              
H              33.841              0.082               23.122              
H              33.727              2.539               22.91               
H              30.345              0.175               23.103              
H              32.415              4.488               23.308              
H              29.004              2.106               23.493              
H              30.038              4.277               23.597              
N              33.607              1.449               19.586              
C              34.496              2.354               18.846              
C              34.519              3.787               19.367              
O              35.6                4.384               19.539              
C              34.164              2.365               17.369              
C              35.385              2.599               16.495              
O              36.42               1.948               16.755              
O              35.253              3.331               15.485              
H              32.617              1.309               19.365              
H              35.441              1.985               18.947              
H              33.769              1.484               17.128              
H              33.51               3.094               17.198              
N              33.343              4.342               19.635              
C              33.258              5.761               20.005              
C              31.878              6.092               20.481              
O              30.932              5.33                20.272              
C              33.551              6.592               18.768              
H              32.528              3.72                19.565              
H              33.918              5.932               20.745              
H              33.877              5.997               18.033              
H              32.717              7.058               18.471              
H              34.253              7.273               18.979              
N              31.746              7.259               21.1                
C              30.422              7.778               21.396              
C              30.424              9.184               20.869              
O              31.455              9.86                20.932              
C              30.145              7.754               22.905              
O              31.055              8.613               23.584              
H              32.624              7.738               21.339              
H              29.761              7.251               20.884              
H              29.221              8.071               23.066              
H              30.266              6.829               23.237              
H              31.794              8.068               23.975              
N              29.275              9.607               20.355              
C              29.114              10.911              19.706              
C              27.786              11.538              20.082              
O              26.809              10.876              20.472              
C              29.183              10.851              18.146              
C              30.521              10.288              17.647              
C              28.009              10.082              17.57               
O              27.671              12.76               19.952              
H              28.484              8.925               20.452              
H              29.851              11.512              20.034              
H              29.118              11.788              17.81               
H              30.419              9.312               17.469              
H              30.782              10.759              16.807              
H              31.218              10.433              18.346              
H              28.319              9.18                17.266              
H              27.305              9.975               18.273              
H              27.631              10.585              16.792              
H              26.2344             2.32657             9.10902             
H              29.5433             3.0188              17.8071             
H              21.7333             -2.87878            22.325              
