203
4.xyz
C              24.591              -2.729              25.85               
O              25.411              -2.81               24.945              
N              24.881              -2.223              27.046              
C              26.234              -1.757              27.37               
C              27.186              -2.954              27.476              
O              26.929              -3.9                28.23               
C              26.191              -0.953              28.683              
C              27.496              -0.201              29.001              
H              24.091              -2.187              27.712              
H              26.548              -1.202              26.599              
H              25.454              -0.282              28.618              
H              26.006              -1.585              29.434              
O              27.745              0.105               30.166              
N              28.302              0.122               27.984              
H              28.012              -0.138              27.054              
H              29.149              0.598               28.141              
N              28.268              -2.909              26.698              
C              29.284              -3.964              26.725              
C              30.689              -3.352              26.738              
O              30.883              -2.201              26.337              
C              29.145              -4.953              25.518              
C              27.793              -5.692              25.544              
C              29.365              -4.253              24.189              
H              28.327              -2.076              26.082              
H              29.169              -4.488              27.573              
H              29.854              -5.643              25.618              
H              27.956              -6.67               25.441              
H              27.342              -5.512              26.414              
H              27.228              -5.361              24.793              
H              28.596              -3.641              24.005              
H              30.213              -3.723              24.229              
H              29.431              -4.936              23.461              
N              31.665              -4.132              27.192              
C              33.053              -3.67               27.161              
C              33.559              -3.524              25.724              
O              33.333              -4.4                24.873              
C              33.938              -4.605              27.949              
H              31.372              -5.049              27.551              
H              33.105              -2.77               27.611              
H              33.546              -4.76               28.858              
H              34.016              -5.483              27.472              
H              34.851              -4.205              28.05               
N              34.235              -2.407              25.455              
C              34.913              -2.222              24.167              
C              36.16               -3.082              24.114              
O              36.746              -3.396              25.146              
C              35.36               -0.769              24.005              
S              34.041              0.452               24.123              
H              34.24               -1.703              26.21               
H              34.289              -2.522              23.442              
H              36.038              -0.574              24.717              
H              35.795              -0.68               23.106              
N              36.587              -3.425              22.906              
C              37.82               -4.195              22.734              
C              39.033              -3.558              23.436              
O              39.897              -4.272              23.951              
C              38.111              -4.425              21.245              
C              37.243              -5.502              20.619              
C              37.498              -5.631              19.13               
C              36.528              -6.628              18.504              
N              36.567              -6.65               17.002              
H              35.994              -3.112              22.121              
H              37.682              -5.123              23.119              
H              37.95               -3.569              20.763              
H              39.065              -4.695              21.155              
H              37.443              -6.379              21.06               
H              36.279              -5.272              20.765              
H              37.363              -4.749              18.699              
H              38.422              -5.959              18.985              
H              36.745              -7.553              18.847              
H              35.59               -6.4                18.8                
H              36.432              -5.723              16.66               
H              37.454              -6.997              16.706              
H              35.84               -7.245              16.667              
N              39.075              -2.229              23.478              
C              40.186              -1.519              24.109              
C              40.046              -1.395              25.626              
O              40.899              -0.795              26.279              
C              40.376              -0.131              23.477              
C              39.229              0.826               23.779              
H              38.269              -1.751              23.034              
H              41.025              -2.064              23.935              
H              41.219              0.263               23.834              
H              40.443              -0.244              22.489              
O              38.329              0.525               24.563              
N              39.265              2.005               23.148              
H              40.013              2.207               22.518              
H              38.545              2.677               23.308              
N              38.971              -1.948              26.18               
C              38.771              -1.915              27.623              
C              37.959              -0.742              28.138              
O              37.601              -0.705              29.322              
H              38.312              -2.389              25.517              
H              38.319              -2.789              27.916              
H              39.687              -1.916              28.085              
N              37.67               0.23                27.275              
C              36.756              1.298               27.666              
C              35.342              0.743               27.819              
O              35.04               -0.346              27.322              
C              36.772              2.434               26.637              
C              38.09               3.192               26.59               
C              38.396              3.895               27.895              
H              38.125              0.163               26.359              
H              37.047              1.645               28.56               
H              36.602              2.048               25.731              
H              36.047              3.083               26.866              
H              38.825              2.544               26.396              
H              38.041              3.874               25.862              
O              39.127              3.367               28.733              
N              37.825              5.085               28.084              
H              37.974              5.606               28.94               
H              37.232              5.464               27.346              
N              34.487              1.483               28.524              
C              33.179              0.968               28.923              
C              32.014              1.577               28.143              
O              30.85               1.369               28.498              
C              32.935              1.237               30.417              
O              33.045              2.644               30.656              
C              33.958              0.509               31.267              
H              34.824              2.435               28.759              
H              33.171              -0.038              28.767              
H              31.989              0.947               30.654              
H              33.847              -0.483              31.162              
H              34.885              0.765               30.982              
H              33.835              0.751               32.233              
H              33.766              3.042               30.078              
N              32.328              2.324               27.09               
C              31.3                3.064               26.353              
C              30.862              2.395               25.037              
O              30.506              3.089               24.076              
C              31.761              4.513               26.101              
C              32.973              4.595               25.182              
H              33.331              2.339               26.842              
H              30.476              3.102               26.947              
H              31.009              5.01                25.68               
H              31.998              4.921               26.977              
O              33.971              3.893               25.379              
N              32.891              5.453               24.173              
H              32.065              6.007               24.054              
H              33.652              5.549               23.532              
N              30.87               1.066               25.007              
C              30.381              0.326               23.831              
C              28.992              -0.247              24.056              
O              28.589              -0.504              25.191              
C              31.37               -0.757              23.409              
S              32.802              -0.028              22.58               
H              31.238              0.605               25.855              
H              30.337              0.972               23.056              
H              31.684              -1.225              24.213              
H              30.921              -1.361              22.776              
N              28.261              -0.438              22.958              
C              26.857              -0.872              23.016              
C              26.592              -1.853              21.891              
O              27.013              -1.63               20.753              
C              25.896              0.329               22.946              
C              26.138              1.306               24.084              
C              27.149              2.268               23.981              
C              25.41               1.237               25.274              
C              27.434              3.142               25.01               
C              25.695              2.119               26.322              
C              26.715              3.07                26.171              
O              27.041              3.972               27.17               
H              28.761              -0.256              22.065              
H              26.714              -1.34               23.888              
H              26.049              0.799               22.094              
H              24.973              -0.009              23.018              
H              27.683              2.32                23.127              
H              24.692              0.566               25.378              
H              28.163              3.824               24.902              
H              25.179              2.074               27.172              
H              27.546              4.731               26.768              
N              25.921              -2.947              22.233              
C              25.576              -3.994              21.279              
C              24.093              -3.899              20.913              
O              23.24               -3.742              21.781              
C              25.902              -5.363              21.889              
C              25.606              -6.553              20.985              
C              26.084              -7.859              21.602              
H              25.661              -2.993              23.246              
H              26.106              -3.842              20.442              
H              26.879              -5.385              22.122              
H              25.367              -5.473              22.733              
H              24.623              -6.611              20.842              
H              26.074              -6.421              20.117              
O              27.198              -7.935              22.115              
N              25.24               -8.884              21.565              
H              25.497              -9.787              21.944              
H              24.32               -8.746              21.145              
N              23.788              -3.978              19.618              
C              22.399              -3.913              19.164              
C              21.602              -5.123              19.646              
O              22.106              -6.245              19.628              
C              22.34               -3.787              17.632              
O              22.855              -4.93               16.96               
H              24.595              -4.086              18.982              
H              21.979              -3.088              19.562              
H              21.385              -3.655              17.36               
H              22.873              -2.984              17.358              
H              22.097              -5.493              16.637              
N              20.361              -4.893              20.081              
H              20.068              -3.904              20.074              
H              19.7622             -5.65765            20.3939             
H              23.5908             -3.07171            25.7027             
