203
4.xyz
C              24.532              -2.758              25.774              
O              25.332              -2.843              24.864              
N              24.841              -2.238              26.962              
C              26.197              -1.757              27.266              
C              27.122              -2.971              27.398              
O              26.844              -3.89               28.191              
C              26.149              -0.944              28.577              
C              27.461              -0.206              28.92               
H              24.06               -2.202              27.641              
H              26.508              -1.237              26.477              
H              25.422              -0.262              28.499              
H              25.941              -1.57               29.328              
O              27.679              0.092               30.093              
N              28.283              0.15                27.922              
H              27.99               -0.083              26.983              
H              29.126              0.615               28.1                
N              28.198              -2.965              26.61               
C              29.217              -4.018              26.652              
C              30.617              -3.385              26.658              
O              30.797              -2.242              26.237              
C              29.101              -5.009              25.452              
C              27.739              -5.73               25.466              
C              29.317              -4.283              24.12               
H              28.253              -2.148              25.962              
H              29.107              -4.526              27.506              
H              29.797              -5.706              25.573              
H              27.889              -6.708              25.348              
H              27.29               -5.558              26.339              
H              27.179              -5.379              24.72               
H              28.997              -4.867              23.376              
H              28.801              -3.429              24.128              
H              30.29               -4.092              24.008              
N              31.61               -4.145              27.109              
C              32.977              -3.647              27.066              
C              33.481              -3.51               25.631              
O              33.247              -4.381              24.779              
C              33.896              -4.528              27.876              
H              31.339              -5.065              27.471              
H              33.007              -2.737              27.503              
H              34.552              -4.984              27.271              
H              34.397              -3.975              28.544              
H              33.362              -5.222              28.362              
N              34.161              -2.399              25.366              
C              34.832              -2.216              24.081              
C              36.077              -3.081              24.028              
O              36.667              -3.384              25.048              
C              35.286              -0.764              23.898              
S              34.001              0.471               24.037              
H              34.173              -1.698              26.125              
H              34.208              -2.515              23.356              
H              35.991              -0.578              24.591              
H              35.708              -0.692              22.987              
N              36.507              -3.42               22.821              
C              37.731              -4.197              22.644              
C              38.952              -3.562              23.323              
O              39.836              -4.271              23.812              
C              38.007              -4.427              21.146              
C              37.115              -5.485              20.515              
C              37.428              -5.638              19.032              
C              36.443              -6.601              18.373              
N              36.538              -6.646              16.866              
H              35.917              -3.096              22.035              
H              37.592              -5.122              23.039              
H              37.86               -3.565              20.671              
H              38.956              -4.714              21.05               
H              37.272              -6.358              20.969              
H              36.162              -5.214              20.617              
H              37.346              -4.755              18.593              
H              38.342              -6.004              18.931              
H              36.605              -7.531              18.732              
H              35.503              -6.332              18.626              
H              36.064              -7.458              16.539              
H              36.112              -5.826              16.494              
H              37.499              -6.682              16.606              
N              38.979              -2.235              23.37               
C              40.094              -1.524              23.985              
C              39.971              -1.375              25.508              
O              40.844              -0.765              26.148              
C              40.293              -0.16               23.311              
C              39.191              0.836               23.647              
H              38.162              -1.763              22.944              
H              40.932              -2.073              23.814              
H              41.164              0.217               23.616              
H              40.306              -0.297              22.324              
O              38.308              0.566               24.454              
N              39.251              2.014               23.022              
H              39.989              2.194               22.372              
H              38.56               2.711               23.204              
N              38.901              -1.924              26.081              
C              38.714              -1.907              27.522              
C              37.919              -0.722              28.043              
O              37.585              -0.663              29.23               
H              38.228              -2.356              25.418              
H              38.248              -2.772              27.81               
H              39.63               -1.92               27.979              
N              37.613              0.234               27.172              
C              36.702              1.299               27.563              
C              35.283              0.738               27.715              
O              34.972              -0.347              27.209              
C              36.735              2.451               26.559              
C              38.116              3.117               26.426              
C              38.105              4.29                25.442              
H              38.054              0.156               26.25               
H              36.987              1.645               28.459              
H              36.477              2.106               25.658              
H              36.086              3.155               26.848              
H              38.39               3.457               27.32               
H              38.765              2.436               26.101              
O              38.386              4.12                24.254              
N              37.765              5.475               25.93               
H              37.75               6.297               25.339              
H              37.516              5.546               26.917              
N              34.436              1.476               28.428              
C              33.124              0.952               28.813              
C              31.954              1.574               28.054              
O              30.804              1.352               28.417              
C              32.88               1.142               30.322              
O              33.016              2.53                30.634              
C              33.902              0.351               31.12               
H              34.773              2.418               28.678              
H              33.119              -0.052              28.635              
H              31.928              0.857               30.538              
H              33.549              0.167               32.041              
H              34.092              -0.521              30.662              
H              34.755              0.873               31.195              
H              33.531              3.004               29.911              
N              32.243              2.342               27.01               
C              31.195              3.052               26.266              
C              30.768              2.368               24.968              
O              30.431              3.042               23.996              
C              31.615              4.503               25.982              
C              32.852              4.593               25.1                
H              33.249              2.398               26.768              
H              30.375              3.082               26.869              
H              30.862              4.962               25.521              
H              31.811              4.947               26.851              
O              33.865              3.921               25.345              
N              32.787              5.446               24.081              
H              31.958              5.987               23.935              
H              33.565              5.547               23.462              
N              30.76               1.046               24.96               
C              30.301              0.315               23.778              
C              28.924              -0.253              23.987              
O              28.517              -0.529              25.12               
C              31.3                -0.759              23.359              
S              32.729              -0.015              22.513              
H              31.091              0.59                25.822              
H              30.268              0.965               23.006              
H              31.628              -1.217              24.162              
H              30.86               -1.371              22.73               
N              28.201              -0.436              22.888              
C              26.792              -0.857              22.95               
C              26.528              -1.842              21.833              
O              26.959              -1.623              20.702              
C              25.848              0.347               22.842              
C              26.073              1.314               23.979              
C              27.08               2.276               23.881              
C              25.346              1.229               25.165              
C              27.369              3.138               24.917              
C              25.638              2.102               26.22               
C              26.652              3.048               26.071              
O              26.964              3.943               27.094              
H              28.701              -0.261              21.997              
H              26.646              -1.317              23.824              
H              26.033              0.811               21.993              
H              24.921              0.019               22.889              
H              27.61               2.338               23.025              
H              24.629              0.56                25.264              
H              28.097              3.82                24.815              
H              25.125              2.047               27.071              
H              27.463              4.711               26.704              
N              25.831              -2.922              22.181              
C              25.5                -3.987              21.234              
C              24.018              -3.904              20.868              
O              23.164              -3.727              21.755              
C              25.819              -5.352              21.855              
C              25.577              -6.532              20.915              
C              26.067              -7.826              21.522              
H              25.542              -2.944              23.184              
H              26.03               -3.835              20.399              
H              26.782              -5.365              22.126              
H              25.244              -5.479              22.665              
H              24.601              -6.605              20.744              
H              26.067              -6.366              20.067              
O              27.168              -7.874              22.07               
N              25.266              -8.881              21.422              
H              25.536              -9.785              21.794              
H              24.362              -8.767              20.959              
N              23.72               -3.999              19.572              
C              22.336              -3.914              19.105              
C              21.552              -5.123              19.593              
O              22.059              -6.242              19.574              
C              22.298              -3.79               17.568              
O              22.79               -4.941              16.893              
H              24.53               -4.134              18.944              
H              21.923              -3.093              19.506              
H              21.348              -3.631              17.286              
H              22.852              -2.997              17.301              
H              22.021              -5.499              16.587              
N              20.311              -4.912              20.037              
H              19.996              -3.938              20.035              
H              19.7448             -5.69678            20.3492             
H              23.5311             -3.1042             25.6232             
