284
3.xyz
C              23.009              -3.356              25.466              
C              24.451              -2.879              25.675              
O              25.279              -2.972              24.777              
C              23                  -4.824              25.04               
C              23.587              -5.794              26.066              
C              23.864              -7.13               25.385              
C              24.636              -8.06               26.286              
N              25.46               -9.033              25.482              
H              22.523              -3.321              26.353              
H              22.053              -5.095              24.865              
H              23.53               -4.909              24.194              
H              24.437              -5.425              26.411              
H              22.933              -5.931              26.794              
H              22.993              -7.553              25.152              
H              24.396              -6.962              24.56               
H              25.251              -7.529              26.869              
H              24                  -8.579              26.857              
H              25.45               -9.918              25.939              
H              25.065              -9.114              24.571              
H              26.394              -8.69               25.421              
N              24.739              -2.388              26.873              
C              26.049              -1.852              27.217              
C              27.027              -3.015              27.397              
O              26.771              -3.92               28.182              
C              25.916              -1.005              28.495              
C              27.206              -0.249              28.88               
H              23.941              -2.419              27.553              
H              26.371              -1.321              26.435              
H              25.194              -0.331              28.355              
H              25.675              -1.609              29.252              
O              27.43               -0.01               30.058              
N              28.028              0.145               27.902              
H              27.759              -0.068              26.952              
H              28.862              0.625               28.103              
N              28.105              -3.018              26.606              
C              29.12               -4.078              26.649              
C              30.498              -3.427              26.68               
O              30.669              -2.278              26.272              
C              29.021              -5.088              25.448              
C              27.649              -5.82               25.413              
C              29.274              -4.395              24.115              
H              28.163              -2.203              25.956              
H              28.998              -4.589              27.496              
H              29.713              -5.788              25.59               
H              27.808              -6.784              25.228              
H              27.206              -5.706              26.296              
H              27.093              -5.418              24.693              
H              30.186              -4.638              23.785              
H              28.586              -4.692              23.454              
H              29.214              -3.405              24.242              
N              31.48               -4.147              27.2                
C              32.855              -3.659              27.193              
C              33.329              -3.512              25.738              
O              33.035              -4.37               24.895              
C              33.747              -4.612              27.959              
H              31.197              -5.058              27.6                
H              32.886              -2.76               27.626              
H              33.328              -5.521              27.985              
H              34.64               -4.675              27.51               
H              33.872              -4.28               28.895              
N              34.038              -2.414              25.462              
C              34.718              -2.224              24.191              
C              35.981              -3.061              24.159              
O              36.542              -3.402              25.213              
C              35.12               -0.75               23.979              
S              33.811              0.46                24.025              
H              34.058              -1.713              26.235              
H              34.112              -2.541              23.457              
H              35.803              -0.525              24.691              
H              35.586              -0.697              23.082              
N              36.459              -3.332              22.949              
C              37.696              -4.099              22.758              
C              38.912              -3.452              23.414              
O              39.801              -4.153              23.894              
C              37.959              -4.342              21.273              
C              37.123              -5.451              20.676              
C              37.306              -5.541              19.168              
C              36.648              -6.798              18.642              
N              36.711              -6.874              17.157              
H              35.893              -2.962              22.161              
H              37.566              -5.024              23.157              
H              37.762              -3.496              20.78               
H              38.924              -4.577              21.163              
H              37.393              -6.325              21.084              
H              36.156              -5.28               20.872              
H              36.878              -4.755              18.747              
H              38.273              -5.576              18.964              
H              37.112              -7.599              19.031              
H              35.686              -6.811              18.93               
H              35.875              -6.486              16.769              
H              37.502              -6.357              16.832              
H              36.798              -7.83               16.877              
N              38.939              -2.122              23.458              
C              40.045              -1.4                24.106              
C              39.889              -1.31               25.625              
O              40.721              -0.716              26.299              
C              40.204              0.015               23.512              
C              39.011              0.936               23.827              
H              38.137              -1.649              23.009              
H              40.888              -1.931              23.926              
H              41.024              0.426               23.894              
H              40.282              -0.066              22.525              
O              38.11               0.58                24.58               
N              39.023              2.135               23.254              
H              39.781              2.389               22.65               
H              38.281              2.78                23.423              
N              38.806              -1.859              26.158              
C              38.587              -1.847              27.599              
C              37.741              -0.724              28.164              
O              37.412              -0.724              29.362              
H              38.149              -2.285              25.481              
H              38.168              -2.752              27.876              
H              39.508              -1.842              28.072              
N              37.382              0.237               27.313              
C              36.49               1.311               27.716              
C              35.097              0.699               27.884              
O              34.858              -0.447              27.469              
C              36.481              2.446               26.676              
C              37.781              3.225               26.568              
C              38.121              3.944               27.849              
H              37.787              0.149               26.363              
H              36.781              1.645               28.603              
H              36.277              2.049               25.776              
H              35.748              3.091               26.917              
H              38.518              2.587               26.351              
H              37.69               3.897               25.835              
O              37.627              5.044               28.117              
N              38.98               3.335               28.648              
H              39.273              3.764               29.531              
H              39.352              2.426               28.378              
N              34.192              1.453               28.501              
C              32.903              0.921               28.909              
C              31.741              1.493               28.087              
O              30.582              1.159               28.336              
C              32.635              1.191               30.416              
O              32.584              2.607               30.648              
C              33.725              0.584               31.293              
H              34.485              2.438               28.662              
H              32.911              -0.084              28.779              
H              31.73               0.794               30.659              
H              33.827              -0.39               31.081              
H              34.595              1.051               31.123              
H              33.479              0.687               32.259              
H              32.853              3.106               29.818              
N              32.05               2.343               27.111              
C              31.028              3.043               26.333              
C              30.617              2.353               25.006              
O              30.301              3.031               24.013              
C              31.48               4.494               26.065              
C              32.737              4.561               25.197              
H              33.072              2.466               26.95               
H              30.185              3.082               26.906              
H              30.746              4.967               25.594              
H              31.675              4.925               26.937              
O              33.728              3.88                25.47               
N              32.689              5.359               24.135              
H              31.853              5.881               23.948              
H              33.476              5.439               23.529              
N              30.626              1.016               24.992              
C              30.17               0.257               23.817              
C              28.782              -0.342              24.011              
O              28.379              -0.65               25.14               
C              31.192              -0.802              23.39               
S              32.579              -0.049              22.523              
H              30.973              0.571               25.858              
H              30.132              0.894               23.032              
H              31.532              -1.247              24.199              
H              30.746              -1.432              22.78               
N              28.065              -0.503              22.902              
C              26.664              -0.927              22.916              
C              26.403              -1.885              21.764              
O              26.755              -1.603              20.619              
C              25.721              0.292               22.844              
C              25.945              1.244               23.995              
C              26.945              2.221               23.925              
C              25.178              1.158               25.164              
C              27.19               3.068               24.975              
C              25.412              2.032               26.232              
C              26.434              2.966               26.121              
O              26.709              3.842               27.14               
H              28.587              -0.301              22.018              
H              26.492              -1.413              23.776              
H              25.901              0.769               21.999              
H              24.791              -0.038              22.884              
H              27.49               2.296               23.084              
H              24.464              0.475               25.236              
H              27.915              3.761               24.911              
H              24.857              1.982               27.052              
H              27.23               4.614               26.779              
N              25.814              -3.027              22.1                
C              25.462              -4.07               21.148              
C              23.974              -4                  20.801              
O              23.124              -3.843              21.688              
C              25.79               -5.427              21.762              
C              25.559              -6.637              20.869              
C              26.003              -7.891              21.563              
H              25.62               -3.115              23.133              
H              25.979              -3.91               20.302              
H              26.762              -5.429              22.04               
H              25.231              -5.548              22.597              
H              24.59               -6.701              20.668              
H              26.085              -6.52               20.036              
O              27.087              -7.937              22.138              
N              25.155              -8.9                21.559              
H              25.389              -9.795              21.999              
H              24.246              -8.784              21.107              
N              23.664              -4.115              19.512              
C              22.288              -4.022              19.041              
C              21.489              -5.224              19.531              
O              21.975              -6.355              19.501              
C              22.215              -3.888              17.504              
O              22.722              -5.018              16.813              
H              24.476              -4.274              18.882              
H              21.877              -3.197              19.435              
H              21.255              -3.751              17.245              
H              22.742              -3.077              17.234              
H              21.961              -5.566              16.469              
N              20.271              -4.966              19.999              
C              19.364              -6.031              20.405              
C              18.926              -6.895              19.214              
O              18.658              -8.084              19.365              
C              18.138              -5.445              21.129              
C              18.45               -4.854              22.489              
C              19.15               -5.585              23.445              
C              18.002              -3.583              22.836              
C              19.43               -5.049              24.69               
C              18.275              -3.041              24.085              
C              18.998              -3.778              25.001              
O              19.296              -3.252              26.243              
H              20.029              -3.956              20.048              
H              19.847              -6.63               21.059              
H              17.755              -4.727              20.555              
H              17.473              -6.176              21.252              
H              19.455              -6.514              23.228              
H              17.476              -3.051              22.175              
H              19.948              -5.586              25.363              
H              17.95               -2.125              24.317              
H              20.041              -2.596              26.148              
N              18.841              -6.288              18.039              
C              18.461              -7.008              16.817              
C              19.665              -7.2                15.909              
O              20.613              -6.412              15.95               
C              17.376              -6.226              16.055              
O              16.184              -6.109              16.815              
H              19.062              -5.272              18.052              
H              18.125              -7.916              17.087              
H              17.725              -5.314              15.853              
H              17.175              -6.709              15.206              
H              16.414              -6.02               17.783              
N              19.63               -8.23               15.063              
C              20.655              -8.343              14.032              
C              20.404              -7.218              13.021              
O              19.259              -6.761              12.851              
C              20.635              -9.705              13.302              
O              19.438              -9.81               12.525              
C              20.698              -10.866             14.289              
H              18.864              -8.892              15.197              
H              21.545              -8.197              14.445              
H              21.433              -9.747              12.669              
H              21.533              -10.798             14.838              
H              19.901              -10.838             14.896              
H              20.701              -11.735             13.79               
H              19.66               -9.867              11.546              
N              21.481              -6.764              12.383              
C              21.43               -5.746              11.337              
C              22.131              -6.234              10.071              
O              23.07               -7.05               10.132              
C              22.08               -4.437              11.82               
C              21.335              -3.78               12.976              
S              22.022              -2.179              13.436              
C              20.701              -1.573              14.485              
H              22.381              -7.205              12.7                
H              20.465              -5.576              11.111              
H              23.02               -4.633              12.116              
H              22.112              -3.79               11.052              
H              20.346              -3.691              12.713              
H              21.346              -4.424              13.776              
H              19.98               -2.264              14.548              
H              21.06               -1.383              15.4                
H              20.322              -0.732              14.095              
N              21.658              -5.737              8.929               
H              20.791              -5.166              9.035               
H              22.1062             -5.90284            8.03667             
H              22.4609             -2.74967            24.7578             
