329
0.xyz
N              19.327              29.247              10.402              
C              18.651              28.23               9.528               
C              17.726              27.226              10.196              
O              16.842              26.733              9.516               
C              19.633              27.442              8.741               
C              19.183              27.338              7.368               
C              20.033              26.39               6.591               
O              20.437              25.341              7.169               
O              20.291              26.699              5.397               
H              18.66               29.935              10.67               
H              18.134              28.742              8.795               
H              20.488              27.918              8.762               
H              19.683              26.546              9.13                
H              18.26               26.988              7.344               
H              19.249              28.218              6.925               
H              19.688              28.789              11.208              
H              20.067              29.67               9.889               
N              17.942              26.896              11.475              
C              16.909              26.181              12.243              
C              15.963              27.207              12.905              
O              16.413              28.252              13.393              
C              17.531              25.222              13.268              
C              18.432              24.102              12.776              
C              19.011              23.199              13.81               
O              18.799              23.315              15.012              
O              19.747              22.318              13.321              
H              18.852              27.173              11.857              
H              16.382              25.593              11.635              
H              18.07               25.781              13.906              
H              16.774              24.797              13.773              
H              17.895              23.54               12.142              
H              19.192              24.522              12.275              
N              14.658              26.957              12.873              
C              13.687              27.883              13.435              
C              12.585              27.093              14.111              
O              12.339              25.95               13.773              
C              13.038              28.766              12.38               
C              13.983              29.627              11.574              
C              14.172              30.959              11.896              
C              14.655              29.103              10.455              
C              15.032              31.772              11.14               
C              15.502              29.889              9.684               
C              15.688              31.215              10.032              
O              16.509              32.01               9.274               
H              14.398              26.058              12.419              
H              14.146              28.441              14.128              
H              12.534              28.176              11.74               
H              12.381              29.374              12.838              
H              13.694              31.361              12.677              
H              14.517              28.144              10.215              
H              15.174              32.721              11.385              
H              15.967              29.503              8.893               
H              16.972              31.448              8.589               
N              11.938              27.709              15.091              
C              10.814              27.103              15.765              
C              9.612               27.06               14.816              
O              9.279               28.054              14.138              
C              10.415              27.907              17.053              
C              9.253               27.231              17.724              
C              11.59               27.975              18.004              
H              12.31               28.656              15.326              
H              11.049              26.157              15.998              
H              10.116              28.8                16.749              
H              9.578               26.464              18.283              
H              8.77                27.883              18.315              
H              8.613               26.882              17.034              
H              12.119              28.806              17.823              
H              11.256              27.991              18.948              
H              12.174              27.173              17.871              
N              8.968               25.894              14.785              
C              7.786               25.671              13.971              
C              6.533               25.866              14.822              
O              6.437               25.408              15.977              
C              7.793               24.262              13.389              
C              6.595               24.061              12.499              
C              9.079               24.012              12.634              
H              9.389               25.157              15.397              
H              7.77                26.356              13.24               
H              7.71                23.618              14.146              
H              6.888               23.987              11.543              
H              6.113               23.221              12.759              
H              5.968               24.838              12.589              
H              9.588               23.271              13.076              
H              8.868               23.754              11.69               
H              9.635               24.845              12.635              
N              5.551               26.518              14.231              
C              4.254               26.695              14.886              
C              3.211               25.624              14.56               
O              2.516               25.13               15.462              
C              3.703               28.027              14.441              
C              2.465               28.382              15.133              
C              2.045               29.78               14.76               
O              2.926               30.625              14.437              
O              0.82                30.027              14.77               
H              5.766               26.887              13.287              
H              4.392               26.727              15.9                
H              4.387               28.709              14.64               
H              3.522               27.963              13.474              
H              1.744               27.781              14.853              
H              2.611               28.375              16.102              
N              3.074               25.288              13.275              
C              2.084               24.294              12.841              
C              2.531               23.679              11.545              
O              3.238               24.311              10.756              
C              0.705               24.939              12.646              
C              0.116               25.605              13.876              
C              -1.241              26.212              13.6                
C              -1.846              26.881              14.812              
N              -3.173              27.461              14.491              
H              3.713               25.778              12.624              
H              2.02                23.583              13.544              
H              0.787               25.63               11.922              
H              0.071               24.223              12.339              
H              0.024               24.919              14.605              
H              0.74                26.327              14.187              
H              -1.147              26.896              12.872              
H              -1.863              25.489              13.29               
H              -1.95               26.204              15.543              
H              -1.235              27.61               15.125              
H              -3.592              27.818              15.326              
H              -3.062              28.203              13.83               
H              -3.761              26.752              14.1                
N              2.16                22.429              11.339              
C              2.349               21.768              10.027              
C              0.998               21.891              9.362               
O              0.006               21.473              9.946               
C              2.735               20.261              10.154              
C              2.627               19.524              8.786               
C              4.158               20.102              10.713              
H              1.732               21.949              12.151              
H              3.001               22.294              9.519               
H              2.074               19.829              10.758              
H              3.483               19.048              8.615               
H              1.874               18.876              8.834               
H              2.458               20.199              8.076               
H              4.62                20.985              10.675              
H              4.1                 19.786              11.657              
H              4.65                19.434              10.159              
N              0.961               22.494              8.173               
C              -0.279              22.893              7.522               
C              -0.679              21.947              6.422               
O              -1.851              21.812              6.151               
C              -0.123              24.294              6.902               
C              0.138               25.505              7.801               
C              0.569               26.677              7                   
C              -1.087              25.889              8.551               
H              1.906               22.655              7.748               
H              -1.014              22.908              8.221               
H              0.641               24.245              6.24                
H              -0.968              24.487              6.38                
H              0.849               25.256              8.467               
H              -0.141              26.929              6.332               
H              0.739               27.47               7.597               
H              1.417               26.47               6.498               
H              -1.397              25.128              9.133               
H              -0.905              26.686              9.139               
H              -1.83               26.126              7.914               
N              0.295               21.322              5.75                
C              -0.022              20.51               4.596               
C              1.116               19.571              4.344               
O              2.196               19.742              4.872               
C              -0.268              21.413              3.379               
C              -1.268              20.826              2.391               
O              -1.752              19.676              2.585               
O              -1.562              21.535              1.382               
H              1.244               21.471              6.119               
H              -0.824              19.957              4.832               
H              -0.62               22.282              3.709               
H              0.6                 21.544              2.914               
N              0.86                18.576              3.529               
C              1.863               17.609              3.203               
C              1.762               17.266              1.726               
O              0.648               17.193              1.176               
C              1.518               16.385              3.99                
C              2.378               15.194              3.791               
C              1.688               14.077              4.514               
N              2.585               12.959              4.674               
C              2.701               11.994              3.785               
N              1.971               12.032              2.674               
N              3.557               11.002              4.012               
H              -0.112              18.556              3.152               
H              2.773               17.995              3.377               
H              1.537               16.628              4.976               
H              0.562               16.125              3.767               
H              2.431               14.964              2.841               
H              3.256               15.333              4.201               
H              1.405               14.407              5.407               
H              0.899               13.797              3.979               
H              3.149               12.912              5.503               
H              1.35                12.784              2.485               
H              2.051               11.279              2.006               
H              4.119               11.002              4.839               
H              3.64                10.253              3.353               
N              2.902               17.023              1.088               
C              2.918               16.539              -0.311              
C              4.039               15.535              -0.541              
O              4.963               15.433              0.275               
C              3.06                17.7                -1.273              
C              4.406               18.343              -1.214              
C              4.404               19.586              -2.062              
N              5.76                20.119              -2.135              
C              6.088               21.288              -2.691              
N              5.153               22.051              -3.232              
N              7.353               21.697              -2.716              
H              3.762               17.195              1.634               
H              2.035               16.093              -0.5                
H              2.91                17.36               -2.196              
H              2.372               18.381              -1.043              
H              4.619               18.603              -0.28               
H              5.095               17.724              -1.571              
H              4.097               19.349              -2.969              
H              3.812               20.254              -1.64               
H              6.506               19.567              -1.738              
H              4.193               21.784              -3.219              
H              5.413               22.924              -3.667              
H              8.058               21.12               -2.291              
H              7.597               22.557              -3.145              
N              3.947               14.779              -1.633              
C              5.025               13.873              -2.018              
C              5.454               14.322              -3.414              
O              4.638               14.41               -4.317              
C              4.592               12.408              -1.976              
C              5.751               11.513              -2.341              
C              4.077               12.031              -0.549              
H              3.069               14.888              -2.169              
H              5.785               14.012              -1.405              
H              3.89                12.278              -2.67               
H              5.446               10.559              -2.379              
H              6.115               11.776              -3.237              
H              6.476               11.598              -1.655              
H              4.866               11.857              0.029               
H              3.547               12.795              -0.2                
H              3.513               11.218              -0.629              
N              6.713               14.698              -3.549              
C              7.221               15.258              -4.78               
C              8.629               14.693              -5                  
O              9.456               14.74               -4.111              
C              7.275               16.795              -4.726              
C              8.043               17.316              -5.924              
C              5.899               17.365              -4.748              
H              7.301               14.556              -2.696              
H              6.651               14.949              -5.534              
H              7.787               17.05               -3.916              
H              8.723               16.639              -6.209              
H              7.411               17.488              -6.681              
H              8.508               18.169              -5.682              
H              5.407               17.114              -3.908              
H              5.94                18.367              -4.812              
H              5.39                17.011              -5.539              
N              8.872               14.126              -6.185              
C              10.214              13.691              -6.587              
C              10.786              12.727              -5.56               
O              11.975              12.797              -5.23               
C              11.142              14.896              -6.752              
C              10.841              15.746              -7.969              
C              11.895              16.792              -8.185              
C              11.411              17.744              -9.24               
N              12.362              18.848              -9.575              
H              8.034               14.02               -6.793              
H              10.148              13.223              -7.473              
H              11.056              15.468              -5.937              
H              12.079              14.557              -6.826              
H              10.794              15.152              -8.776              
H              9.952               16.193              -7.842              
H              12.038              17.289              -7.345              
H              12.725              16.36               -8.499              
H              11.21               17.225              -10.092             
H              10.532              18.16               -8.938              
H              11.903              19.508              -10.166             
H              12.655              19.296              -8.732              
H              13.155              18.466              -10.047             
N              9.931               11.864              -5.029              
C              10.4                10.811              -4.162              
C              10.6                11.247              -2.711              
O              11.134              10.479              -1.907              
H              8.941               12.012              -5.285              
H              9.74                10.033              -4.18               
H              11.284              10.443              -4.516              
N              10.167              12.452              -2.364              
C              10.291              12.863              -0.964              
C              9.015               13.447              -0.413              
O              8.273               14.125              -1.141              
C              11.467              13.82               -0.784              
C              11.379              15.145              -1.465              
C              12.701              15.889              -1.364              
H              9.77                13.025              -3.103              
H              10.52               12.035              -0.423              
H              11.592              13.979              0.215               
H              12.31               13.347              -1.109              
H              11.171              15.013              -2.428              
H              10.677              15.699              -1.03               
O              13.742              15.275              -1.606              
N              12.677              17.215              -1.018              
H              13.507              17.733              -0.927              
H              11.758              17.631              -0.862              
N              8.745               13.159              0.859               
C              7.64                13.812              1.589               
C              8.06                15.176              2.064               
O              9.155               15.345              2.621               
C              7.17                12.962              2.805               
C              5.843               13.51               3.383               
C              7.018               11.479              2.369               
H              9.365               12.449              1.29                
H              6.874               13.915              0.947               
H              7.851               13.056              3.521               
H              5.088               13.175              2.827               
H              5.746               13.192              4.321               
H              5.869               14.505              3.36                
H              7.838               11.211              1.873               
H              6.907               10.921              3.185               
H              6.217               11.404              1.784               
N              7.186               16.162              1.848               
C              7.469               17.544              2.205               
C              6.281               18.033              2.978               
O              5.18                17.504              2.797               
C              7.653               18.419              0.961               
C              8.823               18.017              0.107               
C              9.183               19.024              -0.958              
O              8.315               19.825              -1.372              
O              10.358              19.018              -1.389              
H              6.293               15.855              1.406               
H              8.286               17.585              2.766               
H              6.835               18.336              0.42                
H              7.801               19.342              1.269               
H              9.616               17.908              0.691               
H              8.602               17.167              -0.352              
N              6.507               19.001              3.855               
H              7.493               19.362              3.851               
H              5.79578             19.3618             4.47463             
