295
2.xyz
C              14.574              27.69               -11.859             
C              14.104              27.061              -10.547             
O              13.342              27.677              -9.795              
C              13.856              27.018              -13.062             
C              12.356              26.959              -12.821             
C              14.146              27.786              -14.341             
H              14.331              28.663              -11.838             
H              14.183              26.081              -13.117             
H              12.178              26.601              -11.904             
H              11.968              27.877              -12.9               
H              11.931              26.359              -13.5               
H              14.913              27.357              -14.818             
H              13.336              27.771              -14.927             
H              14.379              28.732              -14.114             
N              14.571              25.839              -10.283             
C              14.197              25.101              -9.07               
C              14.561              25.91               -7.824              
O              13.811              25.937              -6.836              
C              14.884              23.725              -9.061              
H              15.217              25.457              -11.003             
H              13.205              24.952              -9.077              
H              14.245              23.039              -9.4                
H              15.689              23.758              -9.649              
H              15.156              23.502              -8.128              
N              15.705              26.583              -7.879              
C              16.197              27.387              -6.755              
C              15.357              28.614              -6.456              
O              15.223              29.002              -5.3                
H              16.22               26.494              -8.78               
H              16.241              26.798              -5.924              
H              17.156              27.675              -6.952              
N              14.788              29.227              -7.486              
C              14.052              30.474              -7.298              
C              12.543              30.289              -7.096              
O              11.879              31.193              -6.6                
C              14.358              31.48               -8.423              
C              13.883              31.09               -9.818              
S              14.476              32.227              -11.114             
C              16.197              32.438              -10.67              
H              14.907              28.762              -8.399              
H              14.419              30.934              -6.467              
H              13.937              32.373              -8.181              
H              15.363              31.628              -8.459              
H              14.194              30.134              -10.014             
H              12.859              31.054              -9.818              
H              16.743              31.708              -11.084             
H              16.524              33.325              -11.001             
H              16.295              32.4                -9.674              
N              12.017              29.128              -7.489              
C              10.587              28.832              -7.361              
C              10.156              28.798              -5.891              
O              10.936              28.431              -5.014              
C              10.244              27.506              -8.057              
H              12.703              28.456              -7.891              
H              10.064              29.554              -7.83               
H              10.446              27.586              -9.03               
H              10.792              26.775              -7.657              
H              9.275               27.31               -7.928              
N              8.914               29.214              -5.65               
C              8.314               29.226              -4.325              
C              7.074               28.333              -4.341              
O              5.942               28.829              -4.357              
C              7.976               30.662              -3.909              
C              9.227               31.539              -3.713              
C              10.244              30.855              -2.788              
C              11.685              31.108              -3.246              
N              12.525              29.873              -3.149              
H              8.401               29.536              -6.51               
H              8.965               28.856              -3.665              
H              7.422               31.074              -4.619              
H              7.484               30.633              -3.049              
H              9.653               31.694              -4.599              
H              8.953               32.404              -3.306              
H              10.136              31.22               -1.871              
H              10.077              29.877              -2.798              
H              11.67               31.421              -4.197              
H              12.085              31.823              -2.67               
H              12.799              29.738              -2.199              
H              11.992              29.089              -3.462              
H              13.335              29.982              -3.722              
N              7.286               27.009              -4.35               
C              6.182               26.102              -4.605              
C              5.267               25.887              -3.413              
O              5.697               26.021              -2.261              
C              6.889               24.776              -4.93               
C              8.138               24.83               -4.113              
C              8.557               26.28               -4.145              
H              5.641               26.414              -5.416              
H              6.318               24                  -4.664              
H              7.098               24.72               -5.905              
H              7.959               24.532              -3.173              
H              8.847               24.246              -4.513              
H              8.983               26.556              -3.283              
H              9.19                26.461              -4.9                
N              4.015               25.551              -3.707              
C              3.166               24.894              -2.722              
C              3.142               23.388              -3.006              
O              3.204               22.986              -4.166              
C              1.747               25.434              -2.78               
C              1.599               26.802              -2.117              
O              0.518               27.391              -2.065              
N              2.706               27.312              -1.614              
H              3.708               25.79               -4.664              
H              3.596               25.013              -1.828              
H              1.474               25.521              -3.736              
H              1.14                24.794              -2.312              
H              3.575               26.822              -1.679              
H              2.684               28.209              -1.156              
N              3.065               22.578              -1.954              
C              2.915               21.129              -2.086              
C              1.529               20.812              -1.553              
O              1.205               21.158              -0.409              
C              3.995               20.393              -1.294              
C              3.947               18.888              -1.459              
S              5.229               18.009              -0.57               
C              6.705               18.491              -1.457              
H              3.12                23.062              -1.031              
H              2.939               20.901              -3.045              
H              4.899               20.72               -1.594              
H              3.888               20.612              -0.316              
H              3.008               18.562              -1.169              
H              3.987               18.672              -2.471              
H              7.422               18.747              -0.806              
H              7.026               17.726              -2.018              
H              6.502               19.273              -2.049              
N              0.695               20.198              -2.395              
C              -0.698              19.94               -2.041              
C              -0.89               18.422              -2.001              
O              -0.681              17.734              -3.009              
C              -1.682              20.611              -3.057              
C              -1.399              22.114              -3.21               
C              -3.133              20.415              -2.624              
C              -0.59               22.477              -4.431              
H              1.116               19.927              -3.303              
H              -0.817              20.264              -1.111              
H              -1.539              20.176              -3.941              
H              -2.277              22.594              -3.243              
H              -0.906              22.419              -2.392              
H              -3.74               20.802              -3.315              
H              -3.32               19.44               -2.524              
H              -3.283              20.875              -1.752              
H              -1.08               22.188              -5.253              
H              -0.451              23.467              -4.456              
H              0.297               22.017              -4.392              
N              -1.252              17.91               -0.828              
C              -1.377              16.48               -0.617              
C              -2.844              16.169              -0.296              
O              -3.463              16.828              0.557               
C              -0.432              15.988              0.526               
C              1.035               16.32               0.181               
C              -0.606              14.485              0.781               
C              2.065               16.006              1.301               
H              -1.435              18.619              -0.086              
H              -1.184              16.043              -1.49               
H              -0.674              16.482              1.348               
H              1.296               15.804              -0.634              
H              1.098               17.296              -0.027              
H              -0.025              14.213              1.543               
H              -1.56               14.299              1.001               
H              -0.345              13.982              -0.038              
H              2.022               15.035              1.499               
H              2.967               16.257              0.973               
H              1.824               16.538              2.103               
N              -3.386              15.183              -1.001              
C              -4.752              14.709              -0.776              
C              -4.841              13.183              -0.83               
O              -3.961              12.503              -1.378              
C              -5.706              15.337              -1.795              
O              -5.289              15.032              -3.114              
H              -2.757              14.774              -1.729              
H              -5.035              15.002              0.147               
H              -6.617              14.971              -1.649              
H              -5.701              16.322              -1.672              
H              -4.317              14.798              -3.111              
N              -5.908              12.646              -0.246              
C              -6.136              11.193              -0.223              
C              -7.585              10.933              -0.593              
O              -8.489              11.621              -0.114              
C              -5.799              10.55               1.162               
C              -6.011              9.029               1.137               
C              -4.354              10.867              1.572               
H              -6.56               13.328              0.188               
H              -5.555              10.78               -0.918              
H              -6.44               10.922              1.825               
H              -5.153              8.583               0.893               
H              -6.305              8.725               2.04                
H              -6.711              8.807               0.461               
H              -4.194              10.513              2.491               
H              -3.731              10.432              0.925               
H              -4.224              11.856              1.559               
N              -7.796              9.957               -1.468              
C              -9.137              9.54                -1.822              
C              -9.145              8.028               -1.752              
O              -8.602              7.346               -2.636              
C              -9.511              10.053              -3.211              
C              -10.956             9.743               -3.567              
H              -6.935              9.533               -1.864              
H              -9.749              9.87                -1.115              
H              -9.386              11.039              -3.229              
H              -8.92               9.615               -3.88               
O              -11.494             8.691               -3.2                
N              -11.586             10.646              -4.283              
H              -11.118             11.485              -4.574              
H              -12.545             10.506              -4.548              
N              -9.712              7.506               -0.671              
C              -9.645              6.068               -0.407              
C              -8.189              5.654               -0.249              
O              -7.477              6.193               0.596               
H              -10.189             8.18                -0.052              
H              -10.145             5.859               0.433               
H              -10.053             5.569               -1.171              
N              -7.736              4.728               -1.092              
C              -6.351              4.249               -1.024              
C              -5.419              4.986               -1.999              
O              -4.238              4.654               -2.109              
C              -6.277              2.729               -1.234              
C              -6.731              2.292               -2.623              
O              -7.064              3.144               -3.457              
O              -6.756              1.069               -2.883              
H              -8.426              4.384               -1.781              
H              -6.013              4.447               -0.091              
H              -5.332              2.448               -1.106              
H              -6.863              2.297               -0.558              
N              -5.949              5.985               -2.697              
C              -5.159              6.72                -3.677              
C              -4.657              8.046               -3.099              
O              -5.453              8.884               -2.682              
C              -5.975              6.953               -4.959              
C              -5.16               7.392               -6.172              
C              -4.23               6.27                -6.648              
C              -6.08               7.817               -7.299              
H              -6.942              6.188               -2.489              
H              -4.359              6.164               -3.929              
H              -6.423              6.099               -5.19               
H              -6.639              7.662               -4.769              
H              -4.608              8.191               -5.927              
H              -4.777              5.474               -6.9                
H              -3.712              6.587               -7.44               
H              -3.603              6.028               -5.91               
H              -6.652              8.582               -6.998              
H              -5.536              8.103               -8.09               
H              -6.668              7.05                -7.563              
N              -3.337              8.215               -3.075              
C              -2.72               9.422               -2.55               
C              -2.262              10.281              -3.737              
O              -1.705              9.759               -4.701              
C              -1.492              9.076               -1.678              
C              -0.876              10.339              -1.102              
C              -1.872              8.088               -0.559              
H              -2.793              7.414               -3.462              
H              -3.408              9.939               -2.049              
H              -0.81               8.661               -2.272              
H              0.053               10.145              -0.784              
H              -0.843              11.048              -1.807              
H              -1.429              10.661              -0.333              
H              -1.112              7.459               -0.415              
H              -2.055              8.603               0.275               
H              -2.686              7.585               -0.838              
N              -2.502              11.588              -3.665              
C              -2.044              12.495              -4.721              
C              -1.152              13.586              -4.125              
O              -1.509              14.204              -3.125              
C              -3.247              13.099              -5.491              
O              -3.965              12.043              -6.151              
C              -2.784              14.121              -6.507              
H              -3.021              11.897              -2.83               
H              -1.501              11.969              -5.379              
H              -3.873              13.54               -4.821              
H              -3.46               14.859              -6.585              
H              -1.905              14.514              -6.224              
H              -2.672              13.687              -7.405              
H              -3.534              11.828              -7.033              
N              0.017               13.8                -4.727              
C              0.901               14.887              -4.299              
C              1.152               15.807              -5.483              
O              1.625               15.363              -6.536              
C              2.243               14.369              -3.768              
C              1.993               13.413              -2.594              
C              3.155               15.565              -3.393              
C              3.274               12.832              -1.975              
H              0.24                13.152              -5.5                
H              0.388               15.415              -3.627              
H              2.685               13.855              -4.49               
H              1.494               13.903              -1.884              
H              1.432               12.654              -2.918              
H              4.034               15.214              -3.089              
H              3.274               16.14               -4.195              
H              2.721               16.081              -2.663              
H              3.834               13.582              -1.637              
H              3.021               12.227              -1.226              
H              3.766               12.324              -2.676              
N              0.794               17.08               -5.311              
H              0.382               17.293              -4.381              
H              15.6287             27.6114             -11.9456            
H              0.918204            17.7787             -6.03888            
