274
0.xyz
N              36.823              13.419              -19.888             
C              37.366              12.339              -19.071             
C              37.972              11.19               -19.882             
O              39.193              11.012              -19.901             
C              36.303              11.807              -18.128             
C              36.339              12.45               -16.757             
S              35.036              11.737              -15.729             
C              35.73               12.028              -14.109             
H              36.309              13.04               -20.66              
H              38.104              12.726              -18.487             
H              35.393              11.967              -18.531             
H              36.427              10.813              -18.016             
H              37.246              12.294              -16.341             
H              36.211              13.447              -16.854             
H              36.724              11.906              -14.14              
H              35.521              12.963              -13.814             
H              35.339              11.38               -13.452             
H              36.21               13.99               -19.338             
H              37.568              13.989              -20.242             
N              37.133              10.393              -20.533             
C              37.655              9.332               -21.38              
C              37.17               7.927               -21.076             
O              36.333              7.721               -20.191             
H              36.135              10.584              -20.391             
H              37.437              9.554               -22.363             
H              38.685              9.346               -21.333             
N              37.706              6.957               -21.815             
C              37.23               5.578               -21.736             
C              37.345              4.966               -20.32              
O              38.433              4.541               -19.897             
C              37.945              4.706               -22.784             
C              37.801              5.058               -24.254             
C              38.513              4.184               -25.228             
O              39.193              3.216               -24.906             
O              38.353              4.552               -26.41              
H              38.477              7.261               -22.44              
H              36.26               5.534               -22.031             
H              38.925              4.727               -22.564             
H              37.608              3.768               -22.666             
H              36.824              5.034               -24.476             
H              38.14               5.994               -24.376             
N              36.218              4.931               -19.599             
C              36.154              4.348               -18.251             
C              36.948              5.092               -17.175             
O              37.375              4.49                -16.191             
C              36.593              2.894               -18.272             
C              35.655              2.029               -19.051             
O              34.779              1.395               -18.421             
O              35.785              1.998               -20.295             
H              35.391              5.352               -20.074             
H              35.173              4.373               -17.966             
H              37.497              2.853               -18.687             
H              36.631              2.571               -17.332             
N              37.138              6.393               -17.36              
C              37.738              7.234               -16.338             
C              36.663              7.912               -15.476             
O              35.713              8.496               -15.993             
C              38.645              8.308               -16.968             
C              39.174              9.256               -15.903             
C              39.783              7.649               -17.734             
H              36.824              6.75                -18.286             
H              38.292              6.652               -15.731             
H              38.086              8.849               -17.589             
H              40.12               9.018               -15.684             
H              39.138              10.196              -16.244             
H              38.613              9.18                -15.079             
H              40.323              7.089               -17.106             
H              39.404              7.073               -18.458             
H              40.363              8.357               -18.137             
N              36.821              7.825               -14.158             
C              35.886              8.433               -13.221             
C              36.635              9.239               -12.176             
O              37.825              9.055               -11.978             
C              35.039              7.363               -12.535             
C              34.189              6.554               -13.487             
C              34.725              5.477               -14.179             
C              32.851              6.868               -13.688             
C              33.935              4.73                -15.053             
C              32.065              6.122               -14.551             
C              32.609              5.052               -15.235             
H              37.664              7.289               -13.858             
H              35.326              9.082               -13.745             
H              35.65               6.74                -12.072             
H              34.433              7.815               -11.899             
H              35.68               5.229               -14.055             
H              32.449              7.646               -13.2               
H              34.351              3.955               -15.548             
H              31.088              6.369               -14.677             
H              32.043              4.512               -15.86              
N              35.936              10.142              -11.505             
C              36.547              10.889              -10.432             
C              36.739              10.022              -9.18               
O              35.85               9.284               -8.773              
C              35.715              12.12               -10.107             
C              36.175              12.838              -8.851              
C              35.442              14.148              -8.644              
O              34.615              14.51               -9.504              
O              35.689              14.815              -7.618              
H              34.955              10.256              -11.809             
H              37.446              11.245              -10.723             
H              35.799              12.749              -10.856             
H              34.789              11.83               -9.962              
H              35.983              12.265              -8.08               
H              37.129              13.043              -8.943              
N              37.903              10.133              -8.568              
C              38.212              9.394               -7.358              
C              37.827              10.201              -6.13               
O              37.992              11.413              -6.109              
C              39.73               9.077               -7.301              
C              40.106              8.436               -5.971              
C              40.118              8.171               -8.46               
H              38.574              10.79               -9.024              
H              37.668              8.548               -7.357              
H              40.218              9.943               -7.358              
H              40.794              7.727               -6.125              
H              40.478              9.133               -5.358              
H              39.293              8.027               -5.556              
H              39.566              7.338               -8.427              
H              39.953              8.649               -9.323              
H              41.087              7.936               -8.386              
N              37.316              9.551               -5.099              
C              37.129              10.262              -3.832              
C              38.371              10.244              -2.934              
O              38.867              11.29               -2.548              
C              35.95               9.717               -3.046              
C              35.601              10.623              -1.887              
C              34.657              9.97                -0.936              
O              33.743              9.25                -1.41               
O              34.843              10.155              0.287               
H              37.077              8.571               -5.25               
H              36.87               11.226              -4.022              
H              35.179              9.684               -3.642              
H              36.204              8.85                -2.682              
H              36.43               10.832              -1.402              
H              35.166              11.428              -2.247              
N              38.847              9.051               -2.582              
C              40.073              8.892               -1.799              
C              40.714              7.567               -2.133              
O              40.077              6.708               -2.741              
C              39.786              8.945               -0.294              
C              38.623              8.104               0.128               
C              38.278              8.355               1.556               
C              37.018              7.61                1.957               
N              36.722              7.819               3.408               
H              38.274              8.243               -2.911              
H              40.704              9.633               -2.037              
H              40.606              8.631               0.183               
H              39.604              9.898               -0.053              
H              37.831              8.323               -0.448              
H              38.854              7.135               0.008               
H              39.024              8.043               2.141               
H              38.121              9.33                1.697               
H              36.251              7.948               1.416               
H              37.145              6.635               1.788               
H              37.581              7.898               3.91                
H              36.189              8.656               3.517               
H              36.201              7.04                3.752               
N              41.973              7.401               -1.736              
C              42.616              6.099               -1.79               
C              42.548              5.462               -0.409              
O              42.972              6.061               0.577               
C              44.081              6.201               -2.234              
C              44.192              6.907               -3.59               
C              44.717              4.816               -2.301              
C              43.473              6.2                 -4.704              
H              42.44               8.261               -1.394              
H              42.059              5.532               -2.393              
H              44.571              6.75                -1.563              
H              43.822              7.831               -3.492              
H              45.163              6.978               -3.822              
H              45.681              4.905               -2.543              
H              44.636              4.371               -1.412              
H              44.249              4.269               -2.992              
H              42.499              6.132               -4.486              
H              43.586              6.712               -5.556              
H              43.851              5.281               -4.818              
N              42.032              4.239               -0.347              
C              41.757              3.562               0.921               
C              42.886              2.655               1.441               
O              43.042              2.471               2.647               
C              40.478              2.73                0.803               
C              39.23               3.388               0.219               
C              38.483              2.432               -0.721              
C              38.34               3.886               1.324               
H              41.84               3.803               -1.276              
H              41.576              4.274               1.632               
H              40.688              1.929               0.229               
H              40.24               2.406               1.725               
H              39.498              4.205               -0.294              
H              38.207              1.619               -0.211              
H              37.675              2.893               -1.084              
H              39.088              2.171               -1.471              
H              38.83               4.561               1.883               
H              37.521              4.318               0.937               
H              38.059              3.121               1.91                
N              43.644              2.061               0.538               
C              44.658              1.085               0.925               
C              45.558              0.77                -0.258              
O              45.255              1.137               -1.395              
C              43.998              -0.192              1.461               
C              43.949              -0.238              3.006               
O              44.936              0.145               3.663               
O              42.927              -0.67               3.58                
H              43.464              2.338               -0.444              
H              45.231              1.515               1.628               
H              43.068              -0.229              1.123               
H              44.522              -0.971              1.147               
N              46.678              0.104               -0.008              
C              47.483              -0.407              -1.119              
C              47.967              -1.828              -0.901              
O              47.89               -2.362              0.195               
C              48.673              0.502               -1.426              
C              49.588              0.684               -0.268              
S              51.26               1.05                -0.793              
C              51.689              -0.572              -1.456              
H              46.919              -0.016              0.98                
H              46.903              -0.395              -1.953              
H              49.187              0.105               -2.198              
H              48.32               1.402               -1.717              
H              49.228              1.434               0.333               
H              49.571              -0.162              0.314               
H              50.922              -0.922              -1.992              
H              52.496              -0.487              -2.039              
H              51.884              -1.196              -0.7                
N              48.468              -2.435              -1.967              
C              49.07               -3.745              -1.886              
C              49.95               -3.939              -3.106              
O              49.813              -3.22               -4.087              
C              47.991              -4.817              -1.826              
C              47.402              -5.171              -3.174              
C              46.284              -6.204              -3.058              
C              45.659              -6.465              -4.391              
N              44.433              -7.26               -4.241              
H              48.389              -1.89               -2.853              
H              49.639              -3.798              -1.067              
H              48.391              -5.642              -1.43               
H              47.254              -4.487              -1.236              
H              47.028              -4.343              -3.6                
H              48.122              -5.545              -3.763              
H              46.673              -7.048              -2.705              
H              45.595              -5.852              -2.434              
H              45.437              -5.591              -4.83               
H              46.309              -6.963              -4.971              
H              44.609              -8.05               -3.648              
H              43.71               -6.698              -3.832              
H              44.126              -7.586              -5.138              
N              50.872              -4.89               -3.028              
C              51.663              -5.297              -4.186              
C              51.283              -6.713              -4.548              
O              50.92               -7.526              -3.702              
C              53.164              -5.29               -3.913              
O              53.452              -6.279              -2.926              
C              53.611              -3.935              -3.412              
H              50.982              -5.315              -2.085              
H              51.436              -4.697              -4.951              
H              53.659              -5.539              -4.768              
H              54.607              -3.846              -3.502              
H              53.17               -3.208              -3.946              
H              53.361              -3.825              -2.446              
H              53.381              -5.886              -2.002              
N              51.365              -6.994              -5.83               
C              50.988              -8.279              -6.358              
C              49.511              -8.234              -6.726              
C              48.939              -9.523              -7.23               
C              47.494              -9.698              -6.806              
O              47.2                -9.435              -5.616              
O              46.662              -10.087             -7.658              
H              51.724              -6.21               -6.425              
H              51.21               -8.991              -5.725              
H              49.01               -7.974              -5.91               
H              49.403              -7.551              -7.437              
H              48.957              -9.517              -8.211              
H              49.447              -10.27              -6.847              
H              51.6077             -8.3623             -7.24272            
