365
3.xyz
C              39.626              -33.523             -4.949              
C              39.434              -32.43              -3.94               
O              39.688              -32.669             -2.748              
C              41.106              -33.914             -4.907              
C              42.014              -32.853             -5.488              
O              41.657              -31.774             -6.029              
O              43.234              -33.156             -5.413              
H              39.081              -34.331             -4.635              
H              41.355              -34.065             -3.956              
H              41.215              -34.753             -5.429              
N              38.917              -31.309             -4.317              
C              38.696              -30.191             -3.374              
C              37.279              -29.584             -3.556              
O              36.909              -29.197             -4.665              
C              39.746              -29.096             -3.696              
C              39.706              -27.976             -2.7                
H              38.663              -31.235             -5.326              
H              38.727              -30.574             -2.449              
H              40.641              -29.523             -3.678              
H              39.543              -28.742             -4.601              
O              38.938              -27.022             -2.788              
N              40.643              -28.072             -1.678              
H              41.261              -28.837             -1.669              
H              40.66               -27.364             -0.989              
N              36.536              -29.56              -2.458              
C              35.177              -29.039             -2.539              
C              35.133              -27.543             -2.9                
O              34.184              -27.102             -3.584              
C              34.438              -29.341             -1.197              
C              33.049              -28.744             -1.066              
C              32.007              -29.28              -1.833              
C              32.777              -27.736             -0.115              
C              30.725              -28.753             -1.649              
C              31.511              -27.211             0.07                
C              30.477              -27.773             -0.717              
O              29.233              -27.191             -0.602              
H              36.972              -29.915             -1.608              
H              34.683              -29.544             -3.265              
H              34.366              -30.335             -1.112              
H              35.007              -28.984             -0.455              
H              32.168              -29.996             -2.475              
H              33.54               -27.395             0.445               
H              29.965              -29.109             -2.22               
H              31.323              -26.495             0.701               
H              29.195              -26.383             -1.187              
N              36.114              -26.747             -2.414              
C              35.988              -25.283             -2.708              
C              36.149              -25.083             -4.212              
O              35.445              -24.234             -4.79               
C              37.065              -24.574             -1.893              
C              36.981              -22.998             -2.256              
C              36.687              -24.769             -0.397              
H              36.846              -27.172             -1.901              
H              35.071              -25.007             -2.447              
H              37.948              -24.847             -2.206              
H              36.212              -22.885             -2.86               
H              36.856              -22.516             -1.407              
H              37.831              -22.76              -2.693              
H              35.733              -25.045             -0.348              
H              37.274              -25.475             -0.015              
H              36.825              -23.905             0.076               
N              37.08               -25.806             -4.844              
C              37.323              -25.535             -6.247              
C              36.415              -26.305             -7.197              
O              36.454              -26.102             -8.426              
C              38.76               -25.849             -6.694              
O              39.057              -27.24              -6.523              
C              39.765              -24.912             -5.902              
H              37.559              -26.506             -4.286              
H              37.179              -24.538             -6.413              
H              38.852              -25.625             -7.691              
H              40.371              -24.484             -6.561              
H              39.233              -24.23              -5.417              
H              40.277              -25.477             -5.267              
H              38.434              -27.801             -7.078              
N              35.561              -27.145             -6.617              
C              34.665              -27.975             -7.505              
C              33.651              -27.136             -8.267              
O              33.02               -27.67              -9.205              
C              33.997              -29.032             -6.657              
H              35.551              -27.189             -5.614              
H              35.26               -28.46              -8.162              
H              33.002              -28.942             -6.724              
H              34.266              -29.943             -6.975              
H              34.272              -28.924             -5.7                
N              33.435              -25.891             -7.852              
C              32.571              -25.02              -8.619              
C              33.306              -24.142             -9.622              
O              32.655              -23.325             -10.3               
C              31.75               -24.169             -7.634              
O              32.656              -23.519             -6.713              
H              33.914              -25.624             -6.984              
H              31.917              -25.603             -9.142              
H              31.261              -23.479             -8.133              
H              31.151              -24.756             -7.122              
H              33.424              -24.126             -6.54               
N              34.617              -24.26              -9.699              
C              35.425              -23.492             -10.677             
C              35.517              -24.335             -11.959             
O              35.749              -25.53              -11.923             
C              36.866              -23.344             -10.167             
C              37.007              -22.567             -8.815              
C              35.996              -22.039             -8.043              
C              38.218              -22.2               -8.203              
N              36.552              -21.415             -6.91               
C              37.912              -21.521             -6.996              
C              39.548              -22.391             -8.553              
C              38.898              -21.021             -6.154              
C              40.536              -21.878             -7.698              
C              40.209              -21.236             -6.542              
H              35.045              -24.928             -9.027              
H              34.925              -22.667             -10.895             
H              37.258              -24.239             -10.002             
H              37.405              -22.835             -10.824             
H              35.032              -22.083             -8.24               
H              36.034              -20.982             -6.19               
H              39.811              -22.874             -9.378              
H              38.666              -20.534             -5.317              
H              41.492              -22.001             -7.969              
H              40.945              -20.898             -5.933              
N              35.548              -23.638             -13.111             
C              35.52               -24.314             -14.381             
C              36.776              -25.188             -14.479             
O              36.728              -26.245             -14.969             
C              35.436              -23.232             -15.467             
C              35.625              -23.786             -16.818             
C              34.452              -24.73              -17.181             
N              34.676              -25.312             -18.542             
C              35.527              -26.321             -18.822             
N              36.377              -26.827             -17.947             
N              35.628              -26.74              -20.109             
H              35.592              -22.613             -12.988             
H              34.722              -24.909             -14.428             
H              34.538              -22.814             -15.401             
H              36.147              -22.566             -15.279             
H              35.637              -23.067             -17.505             
H              36.456              -24.33              -16.872             
H              34.43               -25.456             -16.523             
H              33.627              -24.2               -17.192             
H              34.15               -24.917             -19.3               
H              36.38               -26.453             -17.01              
H              36.998              -27.557             -18.199             
H              35.066              -26.315             -20.808             
H              36.265              -27.47              -20.333             
N              37.88               -24.684             -13.929             
C              39.108              -25.348             -13.905             
C              39.442              -26.239             -12.74              
O              40.486              -26.937             -12.752             
C              40.22               -24.25              -13.991             
O              40.931              -24.648             -15.155             
H              37.717              -23.719             -13.511             
H              39.179              -25.943             -14.767             
H              39.795              -23.405             -14.136             
H              40.779              -24.331             -13.219             
H              40.329              -25.184             -15.744             
N              38.53               -26.336             -11.785             
C              38.834              -27.033             -10.553             
C              38.856              -28.537             -10.736             
O              39.794              -29.218             -10.415             
H              37.623              -25.889             -11.991             
H              39.736              -26.726             -10.205             
H              38.144              -26.793             -9.849              
N              37.768              -29.109             -11.314             
C              37.744              -30.555             -11.357             
C              38.819              -31.209             -12.168             
O              39.323              -30.661             -13.158             
C              36.362              -30.88              -12.042             
C              35.504              -29.74              -11.486             
C              36.463              -28.482             -11.536             
H              37.734              -30.937             -10.394             
H              36.443              -30.814             -13.014             
H              36.03               -31.747             -11.739             
H              34.719              -29.579             -12.06              
H              35.244              -29.919             -10.552             
H              36.401              -28.059             -12.422             
H              36.223              -27.859             -10.812             
N              39.083              -32.49              -11.702             
C              40.142              -33.285             -12.264             
C              39.545              -34.252             -13.315             
O              40.278              -34.773             -14.198             
C              40.68               -34.099             -11.119             
C              41.373              -33.206             -10.049             
O              40.773              -32.797             -8.992              
O              42.535              -32.816             -10.36              
H              38.452              -32.78              -10.94              
H              40.758              -32.677             -12.764             
H              39.935              -34.57              -10.672             
H              41.357              -34.735             -11.457             
N              38.243              -34.513             -13.24              
C              37.643              -35.487             -14.161             
C              36.286              -34.968             -14.572             
O              35.587              -34.381             -13.745             
C              37.33               -36.838             -13.503             
C              38.568              -37.548             -13.01              
C              39.048              -37.322             -11.704             
C              39.253              -38.428             -13.856             
C              40.259              -37.995             -11.303             
C              40.462              -39.071             -13.433             
C              40.914              -38.846             -12.186             
O              42.122              -39.47              -11.776             
H              37.722              -34.004             -12.523             
H              38.222              -35.545             -14.969             
H              36.732              -36.674             -12.729             
H              36.885              -37.415             -14.176             
H              38.593              -36.737             -11.082             
H              38.909              -38.621             -14.764             
H              40.61               -37.836             -10.384             
H              40.93               -39.665             -14.078             
H              42.543              -39.877             -12.576             
N              35.924              -35.203             -15.864             
C              34.655              -34.665             -16.369             
C              33.958              -35.74              -17.208             
O              34.624              -36.533             -17.887             
C              34.957              -33.537             -17.382             
C              35.392              -32.221             -16.773             
C              36.693              -31.829             -16.408             
C              34.534              -31.172             -16.371             
N              36.632              -30.595             -15.868             
C              35.329              -30.192             -15.765             
C              33.118              -30.983             -16.421             
C              34.816              -29.017             -15.27              
C              32.606              -29.807             -15.894             
C              33.453              -28.842             -15.329             
H              36.583              -35.755             -16.407             
H              34.073              -34.471             -15.583             
H              35.692              -33.837             -17.984             
H              34.133              -33.356             -17.913             
H              37.493              -32.388             -16.539             
H              37.425              -30.038             -15.577             
H              32.534              -31.668             -16.818             
H              35.42               -28.312             -14.878             
H              31.625              -29.65              -15.918             
H              33.045              -28.003             -14.96              
N              32.649              -35.778             -17.157             
C              31.889              -36.615             -18.131             
C              31.795              -35.904             -19.488             
O              32.285              -34.753             -19.679             
H              32.195              -35.217             -16.432             
H              32.36               -37.489             -18.242             
H              30.97               -36.775             -17.772             
N              31.151              -36.565             -20.42              
C              30.945              -35.981             -21.758             
C              29.654              -35.262             -21.919             
O              29.4                -34.643             -22.941             
C              31.098              -37.059             -22.867             
C              32.589              -37.544             -23.012             
C              33.515              -36.426             -23.503             
H              30.806              -37.502             -20.156             
H              31.71               -35.321             -21.911             
H              30.556              -37.846             -22.63              
H              30.83               -36.673             -23.733             
H              32.893              -37.849             -22.121             
H              32.601              -38.287             -23.666             
O              33.326              -35.868             -24.603             
N              34.532              -36.105             -22.707             
H              35.191              -35.386             -22.975             
H              34.634              -36.598             -21.821             
N              28.783              -35.372             -20.917             
C              27.597              -34.527             -20.875             
C              26.313              -35.282             -21.219             
O              26.383              -36.32              -21.964             
H              29.015              -36.079             -20.206             
H              27.504              -34.123             -19.948             
H              27.71               -33.755             -21.525             
N              25.177              -34.788             -20.734             
C              23.84               -35.361             -21.141             
C              22.974              -34.139             -21.486             
O              22.918              -33.131             -20.746             
C              23.23               -36.353             -20.058             
O              21.961              -36.919             -20.54              
C              22.82               -35.622             -18.792             
H              25.264              -34.006             -20.077             
H              23.978              -35.893             -21.949             
H              23.883              -37.117             -19.927             
H              23.582              -35.061             -18.459             
H              22.034              -35.028             -18.98              
H              22.567              -36.284             -18.082             
H              21.38               -36.183             -20.885             
N              22.171              -34.243             -22.585             
C              21.435              -33.051             -22.931             
C              20.094              -32.955             -22.106             
O              19.376              -33.986             -22.022             
C              21.203              -33.221             -24.47              
C              20.723              -32.105             -24.988             
C              20.766              -32.051             -26.584             
H              22.162              -35.122             -23.048             
H              21.976              -32.244             -22.68              
H              22.103              -33.492             -24.834             
H              20.582              -34.014             -24.548             
H              19.735              -31.922             -24.779             
H              21.224              -31.252             -24.715             
O              21.422              -32.798             -27.312             
N              19.931              -31.24              -27.04              
H              19.877              -31.108             -28.099             
H              19.304              -30.703             -26.461             
N              19.715              -31.749             -21.658             
C              18.426              -31.534             -20.933             
C              17.776              -30.436             -21.752             
O              18.364              -29.322             -21.875             
C              18.7                -31.085             -19.528             
C              17.396              -30.545             -18.908             
C              19.137              -32.339             -18.711             
H              20.381              -30.98              -21.852             
H              17.901              -32.347             -21.023             
H              19.329              -30.318             -19.549             
H              16.625              -30.845             -19.463             
H              17.306              -30.9               -17.981             
H              17.434              -29.549             -18.888             
H              19.388              -32.043             -17.796             
H              18.371              -32.971             -18.677             
H              19.914              -32.755             -19.17              
N              16.551              -30.648             -22.252             
C              15.859              -29.561             -22.91              
C              14.491              -29.392             -22.279             
O              13.801              -30.424             -22.052             
C              15.679              -30.01              -24.432             
O              17.033              -30.186             -24.943             
C              15.028              -28.851             -25.147             
H              16.182              -31.593             -22.128             
H              16.378              -28.716             -22.772             
H              15.218              -30.892             -24.438             
H              15.698              -28.118             -25.3               
H              14.668              -29.151             -26.036             
H              14.27               -28.487             -24.597             
H              17.695              -29.97              -24.224             
N              14.06               -28.162             -22.028             
C              12.769              -27.945             -21.356             
C              11.935              -27.084             -22.339             
O              12.347              -25.957             -22.643             
C              12.984              -27.14              -20.055             
C              11.588              -26.99              -19.333             
C              13.999              -27.969             -19.126             
H              14.68               -27.4               -22.331             
H              12.317              -28.811             -21.261             
H              13.259              -26.23              -20.293             
H              11.753              -26.929             -18.358             
H              11.156              -26.165             -19.671             
H              11.044              -27.789             -19.551             
H              14.478              -27.313             -18.566             
H              13.453              -28.586             -18.583             
H              14.611              -28.454             -19.729             
N              10.77               -27.605             -22.754             
C              10.051              -26.788             -23.745             
C              8.908               -26.045             -23.021             
O              8.306               -26.613             -22.125             
C              9.424               -27.656             -24.811             
O              8.577               -28.568             -24.089             
H              10.483              -28.47              -22.381             
H              10.679              -26.105             -24.099             
H              8.87                -27.114             -25.396             
H              10.112              -28.167             -25.268             
H              9.094               -28.957             -23.332             
N              8.565               -24.833             -23.468             
C              7.644               -23.951             -22.67              
C              6.219               -24.461             -22.613             
O              5.774               -25.09              -23.601             
C              7.664               -22.509             -23.21              
O              7.526               -22.548             -24.643             
O              5.363               -24.382             -21.754             
H              8.962               -24.554             -24.368             
H              8.016               -23.921             -21.728             
H              6.904               -22.014             -22.832             
H              8.527               -22.095             -22.986             
H              8.257               -23.107             -25.021             
H              39.2853             -33.293             -5.93165            
