207
5.xyz
C              24.37               -23.783             -23.595             
C              25.085              -23.059             -24.686             
O              26.207              -22.563             -24.462             
C              23.225              -23.044             -23.113             
H              24.1                -24.685             -23.907             
H              22.356              -23.452             -23.436             
H              23.192              -23.027             -22.101             
H              23.242              -22.082             -23.43              
N              24.481              -22.997             -25.875             
C              25.17               -22.279             -26.942             
C              25.233              -20.808             -26.528             
O              24.288              -20.156             -25.796             
C              24.265              -22.514             -28.18              
C              23.293              -23.491             -27.825             
C              23.199              -23.549             -26.258             
H              26.078              -22.642             -27.096             
H              23.848              -21.622             -28.456             
H              24.851              -22.804             -28.965             
H              22.363              -23.28              -28.185             
H              23.526              -24.426             -28.158             
H              22.443              -22.991             -25.953             
H              23.092              -24.489             -25.969             
N              26.357              -20.23              -26.874             
C              26.556              -18.791             -26.639             
C              27.107              -18.53              -25.26              
O              27.355              -17.365             -24.899             
H              27.068              -20.835             -27.308             
H              27.191              -18.432             -27.336             
H              25.672              -18.317             -26.75              
N              27.36               -19.613             -24.518             
C              27.842              -19.529             -23.184             
C              29.063              -20.408             -22.829             
O              29.454              -21.426             -23.578             
C              26.7                -19.735             -22.153             
C              25.583              -18.697             -22.257             
C              24.675              -18.892             -21.01              
C              24.118              -17.559             -20.431             
N              23.113              -16.887             -21.307             
H              27.167              -20.515             -25.02              
H              28.102              -18.551             -22.972             
H              26.31               -20.636             -22.308             
H              27.099              -19.681             -21.244             
H              25.964              -17.799             -22.223             
H              25.049              -18.865             -23.057             
H              23.901              -19.464             -21.27              
H              25.208              -19.34              -20.297             
H              23.7                -17.761             -19.535             
H              24.898              -16.937             -20.278             
H              22.383              -16.508             -20.74              
H              23.559              -16.153             -21.817             
H              22.732              -17.556             -21.944             
N              29.653              -19.926             -21.71              
C              30.672              -20.641             -20.961             
C              29.906              -21.673             -20.146             
O              28.885              -21.362             -19.585             
C              31.456              -19.692             -19.994             
C              32.339              -18.631             -20.699             
C              33.318              -17.88              -19.702             
O              32.822              -17.096             -18.829             
O              34.567              -18.062             -19.766             
H              29.297              -18.975             -21.435             
H              31.292              -21.095             -21.575             
H              30.791              -19.211             -19.456             
H              32.048              -20.254             -19.451             
H              32.905              -19.08              -21.352             
H              31.762              -17.947             -21.082             
N              30.476              -22.829             -20.015             
C              30.013              -23.793             -19.006             
C              29.893              -23.161             -17.625             
O              30.769              -22.342             -17.169             
C              30.975              -24.909             -18.985             
C              30.494              -26.098             -18.228             
C              31.443              -27.183             -18.388             
N              31.646              -27.529             -19.847             
C              32.371              -28.586             -20.279             
N              32.962              -29.418             -19.422             
N              32.486              -28.852             -21.584             
H              31.266              -23.028             -20.656             
H              29.105              -24.137             -19.286             
H              31.164              -25.198             -19.927             
H              31.83               -24.599             -18.562             
H              30.412              -25.862             -17.261             
H              29.604              -26.376             -18.583             
H              32.336              -26.929             -18.025             
H              31.114              -28.01              -17.939             
H              31.217              -26.937             -20.519             
H              32.856              -29.276             -18.439             
H              33.508              -30.181             -19.764             
H              32.003              -28.258             -22.235             
H              33.031              -29.615             -21.896             
N              28.78               -23.407             -16.961             
C              28.534              -22.745             -15.702             
C              28.262              -23.716             -14.585             
O              27.602              -24.751             -14.792             
C              27.375              -21.73              -15.81              
C              25.984              -22.266             -15.689             
C              24.763              -21.219             -15.681             
O              24.928              -19.972             -15.64              
O              23.607              -21.668             -15.823             
H              28.137              -24.08              -17.401             
H              29.334              -22.165             -15.461             
H              27.515              -21.058             -15.085             
H              27.463              -21.288             -16.7               
H              25.784              -22.876             -16.457             
H              25.883              -22.771             -14.831             
N              28.693              -23.373             -13.389             
C              28.423              -24.23              -12.242             
C              26.939              -24.335             -11.867             
O              26.199              -23.301             -11.873             
C              29.157              -23.499             -11.053             
C              28.799              -24.056             -9.709              
C              29.112              -25.407             -9.377              
C              28.049              -23.28              -8.82               
C              28.731              -25.93              -8.104              
C              27.652              -23.822             -7.522              
C              28.009              -25.17              -7.185              
H              29.214              -22.487             -13.334             
H              28.722              -25.169             -12.496             
H              30.12               -23.618             -11.203             
H              28.884              -22.557             -11.092             
H              29.586              -25.976             -10.013             
H              27.774              -22.362             -9.043              
H              29.001              -26.88              -7.883              
H              27.142              -23.252             -6.896              
H              27.741              -25.54              -6.312              
N              26.465              -25.536             -11.525             
C              25.051              -25.735             -11.119             
C              24.987              -26.199             -9.659              
O              24.167              -25.681             -8.912              
C              24.428              -26.864             -12.016             
C              22.969              -27.174             -11.547             
C              24.459              -26.31              -13.491             
H              27.152              -26.308             -11.565             
H              24.588              -24.852             -11.186             
H              24.95               -27.686             -11.866             
H              22.341              -26.65              -12.11              
H              22.805              -28.148             -11.655             
H              22.884              -26.911             -10.593             
H              25.316              -26.591             -13.902             
H              23.686              -26.697             -13.976             
H              24.393              -25.322             -13.445             
N              25.737              -27.27              -9.309              
C              25.677              -27.741             -7.91               
C              26.856              -28.571             -7.552              
O              27.527              -29.141             -8.411              
C              24.364              -28.578             -7.694              
H              26.297              -27.683             -10.039             
H              25.64               -26.923             -7.313              
H              24.607              -29.42              -7.23               
H              23.741              -28.039             -7.142              
H              23.969              -28.769             -8.583              
N              27.194              -28.603             -6.248              
C              28.32               -29.47              -5.86               
C              28.048              -30.048             -4.47               
O              27.234              -29.485             -3.687              
C              29.723              -28.73              -5.889              
C              29.717              -27.489             -4.894              
C              31.156              -26.805             -4.92               
C              31.106              -25.568             -4.025              
N              32.522              -24.938             -4.114              
H              26.654              -28.032             -5.625              
H              28.388              -30.22              -6.514              
H              30.4                -29.352             -5.581              
H              29.866              -28.389             -6.786              
H              29.064              -26.84              -5.211              
H              29.548              -27.813             -3.992              
H              31.789              -27.449             -4.558              
H              31.335              -26.541             -5.838              
H              30.469              -24.926             -4.377              
H              30.95               -25.828             -3.103              
H              33.161              -25.58              -3.717              
H              32.72               -24.78              -5.07               
H              32.504              -24.089             -3.606              
N              28.758              -31.153             -4.165              
C              28.572              -31.817             -2.898              
C              29.946              -32.257             -2.414              
O              30.805              -32.7               -3.218              
C              27.598              -33.03              -3.058              
C              27.42               -33.725             -1.677              
C              28.107              -34.088             -4.172              
C              26.081              -34.572             -1.719              
H              29.415              -31.456             -4.899              
H              28.255              -31.128             -2.256              
H              26.722              -32.678             -3.334              
H              28.153              -34.334             -1.529              
H              27.318              -33.049             -0.994              
H              27.422              -34.791             -4.232              
H              28.2                -33.591             -5.016              
H              28.969              -34.441             -3.857              
H              26.175              -35.238             -2.443              
H              25.979              -35.008             -0.838              
H              25.34               -33.944             -1.899              
N              30.211              -32.086             -1.11               
C              31.513              -32.492             -0.635              
C              31.693              -34.001             -0.641              
O              30.754              -34.775             -0.736              
C              31.683              -31.983             0.816               
O              30.611              -32.529             1.651               
H              29.472              -31.682             -0.552              
H              32.215              -32.096             -1.253              
H              32.541              -32.3               1.172               
H              31.611              -31.004             0.826               
H              31.02               -33.124             2.33                
N              32.935              -34.372             -0.508              
H              33.634              -33.633             -0.372              
H              25.079              -23.9046            -22.7936            
H              33.1945             -35.3837            -0.540612           
