175
3.xyz
C              -13.814             -7.082              0.183               
C              -13.285             -5.804              0.852               
O              -13.161             -5.711              2.095               
C              -13.074             -8.335              0.665               
C              -13.477             -9.628              -0.188              
H              -14.796             -7.135              0.387               
H              -12.104             -8.215              0.551               
H              -13.318             -8.527              1.599               
O              -14.671             -9.994              -0.301              
N              -12.486             -10.247             -0.817              
H              -11.549             -9.894              -0.731              
H              -12.666             -11.056             -1.371              
N              -12.992             -4.802              0.035               
C              -12.525             -3.53               0.524               
C              -13.615             -2.489              0.369               
O              -14.545             -2.674              -0.375              
C              -11.316             -3.045              -0.282              
C              -10.088             -3.838              -0.028              
O              -9.829              -4.184              1.129               
O              -9.365              -4.126              -0.981              
H              -13.129             -5.018              -0.978              
H              -12.35              -3.628              1.509               
H              -11.559             -3.105              -1.249              
H              -11.156             -2.091              -0.035              
N              -13.443             -1.366              1.02                
C              -14.238             -0.182              0.64                
C              -13.216             0.9                 0.404               
O              -12.279             1.119               1.263               
C              -15.218             0.27                1.771               
C              -15.857             1.648               1.497               
C              -16.251             -0.731              1.952               
H              -12.753             -1.366              1.773               
H              -14.69              -0.383              -0.209              
H              -14.683             0.363               2.611               
H              -16.831             1.524               1.325               
H              -15.723             2.231               2.294               
H              -15.419             2.055               0.7                 
H              -16.904             -0.728              1.178               
H              -15.854             -1.66               2.015               
H              -16.778             -0.564              2.8                 
N              -13.29              1.579               -0.732              
C              -12.323             2.605               -1.043              
C              -13.009             3.982               -0.725              
O              -14.238             4.16                -0.946              
C              -11.985             2.562               -2.556              
C              -11.605             1.213               -2.973              
C              -10.885             1.15                -4.271              
O              -10.73              2.174               -4.92               
N              -10.433             -0.02               -4.664              
H              -14.076             1.314               -1.351              
H              -11.553             2.527               -0.429              
H              -12.795             2.859               -3.05               
H              -11.233             3.194               -2.711              
H              -11.012             0.793               -2.261              
H              -12.438             0.633               -3.043              
H              -9.941              -0.145              -5.55               
H              -10.58              -0.837              -4.057              
N              -12.2               4.939               -0.283              
C              -12.629             6.288               -0.044              
C              -11.926             7.303               -0.905              
O              -10.72              7.237               -1.098              
C              -12.371             6.679               1.391               
C              -12.97              5.71                2.35                
H              -11.21              4.611               -0.124              
H              -13.631             6.348               -0.235              
H              -11.383             6.716               1.555               
H              -12.767             7.582               1.567               
N              -14.297             5.77                2.717               
C              -12.452             4.611               2.952               
C              -14.562             4.772               3.544               
N              -13.456             4.063               3.715               
H              -11.524             4.267               2.861               
H              -15.443             4.584               3.968               
H              -13.367             3.258               4.304               
N              -12.678             8.294               -1.393              
C              -12.106             9.382               -2.247              
C              -12.523             10.706              -1.614              
O              -13.651             10.835              -1.152              
C              -12.652             9.354               -3.718              
C              -12.405             8.027               -4.397              
C              -13.238             6.94                -4.155              
C              -11.277             7.856               -5.165              
C              -12.96              5.706               -4.689              
C              -10.988             6.625               -5.696              
C              -11.788             5.56                -5.467              
H              -13.68              8.255               -1.139              
H              -11.124             9.311               -2.163              
H              -13.617             9.505               -3.669              
H              -12.177             10.051              -4.213              
H              -14.05              7.062               -3.585              
H              -10.668             8.631               -5.336              
H              -13.559             4.927               -4.539              
H              -10.143             6.525               -6.276              
H              -11.578             4.651               -5.836              
N              -11.576             11.659              -1.575              
C              -11.85              13.034              -1.226              
C              -12.639             13.688              -2.352              
O              -12.224             13.542              -3.525              
C              -10.531             13.817              -1.071              
C              -9.538              13.188              -0.137              
C              -8.466              14.263              0.073               
C              -7.355              14.097              -0.92               
N              -6.179              14.985              -0.583              
H              -10.619             11.305              -1.823              
H              -12.403             13.061              -0.391              
H              -10.119             13.895              -1.98               
H              -10.762             14.732              -0.734              
H              -9.958              12.996              0.721               
H              -9.124              12.413              -0.557              
H              -8.888              15.152              -0.05               
H              -8.104              14.168              0.991               
H              -7.04               13.147              -0.922              
H              -7.678              14.339              -1.837              
H              -6.258              15.831              -1.103              
H              -6.194              15.179              0.394               
H              -5.339              14.509              -0.826              
N              -13.746             14.367              -2.034              
C              -14.37              15.3                -2.983              
C              -13.617             16.609              -2.902              
O              -13.737             17.344              -1.894              
C              -15.911             15.412              -2.808              
C              -16.522             16.367              -3.847              
C              -16.537             14.015              -2.956              
H              -14.116             14.184              -1.087              
H              -14.258             14.926              -3.898              
H              -16.083             15.812              -1.913              
H              -17.505             16.208              -3.898              
H              -16.345             17.308              -3.569              
H              -16.104             16.192              -4.736              
H              -16.523             13.56               -2.069              
H              -17.476             14.115              -3.275              
H              -16.005             13.492              -3.617              
N              -12.84              16.901              -3.953              
C              -12                 18.088              -3.993              
C              -12.759             19.266              -4.575              
O              -13.718             19.093              -5.332              
C              -10.693             17.806              -4.78               
C              -9.886              16.635              -4.23               
C              -8.737              16.36               -5.12               
C              -9.388              17.036              -2.863              
H              -12.893             16.207              -4.729              
H              -11.724             18.319              -3.052              
H              -10.948             17.592              -5.707              
H              -10.135             18.614              -4.725              
H              -10.486             15.835              -4.175              
H              -8.136              17.166              -5.184              
H              -8.193              15.588              -4.77               
H              -9.054              16.128              -6.048              
H              -10.166             17.237              -2.262              
H              -8.85               16.29               -2.464              
H              -8.811              17.853              -2.936              
N              -12.338             20.486              -4.197              
C              -12.914             21.708              -4.764              
C              -13.467             22.605              -3.647              
C              -14.396             21.927              -2.741              
C              -15.573             21.331              -3.496              
N              -16.641             22.297              -3.82               
C              -17.49              22.84               -2.93               
N              -17.35              22.535              -1.633              
N              -18.436             23.727              -3.337              
H              -11.587             20.481              -3.485              
H              -13.647             21.442              -5.415              
H              -12.682             22.948              -3.129              
H              -13.931             23.374              -4.089              
H              -13.941             21.175              -2.258              
H              -14.771             22.568              -2.067              
H              -15.228             20.934              -4.352              
H              -15.964             20.595              -2.934              
H              -16.742             22.572              -4.785              
H              -16.627             21.938              -1.315              
H              -18                 22.928              -0.968              
H              -18.462             23.971              -4.306              
H              -19.066             24.107              -2.685              
H              -12.183             22.3141             -5.28536            
H              -13.7186            -7.02814            -0.885544           
