212
1.xyz
C              21.452              1.681               -5.455              
C              22.026              1.267               -4.062              
O              22.985              1.886               -3.505              
C              20.045              2.278               -5.312              
C              20.029              3.629               -4.621              
S              19.942              3.418               -2.813              
C              18.202              3.552               -2.56               
H              22.112              2.281               -5.873              
H              19.642              2.381               -6.228              
H              19.475              1.64                -4.783              
H              20.865              4.143               -4.875              
H              19.234              4.163               -4.951              
H              17.743              2.698               -2.829              
H              18.002              3.732               -1.591              
H              17.826              4.305               -3.11               
N              21.454              0.213               -3.487              
C              21.896              -0.192              -2.128              
C              23.326              -0.715              -2.013              
O              23.992              -0.557              -0.961              
C              20.841              -1.092              -1.432              
C              19.55               -0.331              -1.124              
C              18.404              -1.31               -0.752              
C              19.631              0.796               -0.018              
H              20.734              -0.265              -4.017              
H              21.802              0.626               -1.517              
H              20.623              -1.821              -2.046              
H              21.223              -1.396              -0.587              
H              19.273              0.192               -1.927              
H              18.676              -1.829              0.052               
H              17.583              -0.781              -0.559              
H              18.246              -1.923              -1.52               
H              20.292              1.471               -0.318              
H              18.73               1.199               0.074               
H              19.918              0.371               0.83                
N              23.82               -1.252              -3.102              
C              25.166              -1.745              -3.142              
C              26.216              -0.697              -2.891              
O              27.304              -1.012              -2.553              
C              25.426              -2.376              -4.482              
O              24.801              -3.617              -4.523              
H              23.165              -1.287              -3.912              
H              25.263              -2.463              -2.418              
H              25.054              -1.793              -5.194              
H              26.405              -2.494              -4.601              
H              23.838              -3.512              -4.787              
N              25.859              0.539               -3.125              
C              26.77               1.7                 -2.991              
C              26.704              2.28                -1.617              
O              27.501              3.177               -1.275              
C              26.452              2.762               -4.004              
C              26.708              2.202               -5.45               
C              26.482              3.253               -6.491              
C              25.021              3.447               -6.688              
N              24.851              4.561               -7.674              
H              24.857              0.661               -3.423              
H              27.708              1.38                -3.183              
H              25.505              3                   -3.956              
H              27.049              3.528               -3.886              
H              27.652              1.88                -5.481              
H              26.084              1.437               -5.588              
H              26.887              4.106               -6.184              
H              26.89               2.958               -7.346              
H              24.614              2.628               -7.061              
H              24.593              3.708               -5.837              
H              24.773              5.425               -7.181              
H              25.645              4.587               -8.279              
H              24.024              4.401               -8.209              
N              25.759              1.785               -0.822              
C              25.623              2.319               0.531               
C              26.728              1.687               1.368               
O              27.051              0.515               1.22                
C              24.227              2.017               1.102               
C              23.132              2.829               0.465               
C              23.217              4.296               0.766               
H              25.177              1.048               -1.217              
H              25.786              3.296               0.496               
H              24.032              1.047               0.958               
H              24.241              2.211               2.084               
H              23.175              2.703               -0.534              
H              22.243              2.484               0.79                
O              23.152              4.708               1.917               
N              23.359              5.116               -0.281              
H              23.41               6.122               -0.155              
H              23.417              4.709               -1.213              
N              27.311              2.46                2.293               
C              28.323              1.91                3.127               
C              27.848              1.133               4.335               
O              28.61               0.291               4.821               
C              29.237              3.029               3.675               
C              30.077              3.695               2.605               
C              30.777              4.901               3.186               
N              31.966              5.247               2.415               
C              32.79               6.218               2.777               
N              32.538              6.941               3.894               
N              33.868              6.444               2.077               
H              26.966              3.428               2.327               
H              28.919              1.281               2.561               
H              28.657              3.716               4.094               
H              29.844              2.623               4.346               
H              30.764              3.06                2.278               
H              29.493              3.998               1.865               
H              30.143              5.668               3.173               
H              31.043              4.688               4.121               
H              32.163              4.732               1.586               
H              31.748              6.732               4.454               
H              33.16               7.682               4.142               
H              34.092              5.877               1.277               
H              34.495              7.191               2.329               
N              26.652              1.421               4.859               
C              26.304              0.941               6.209               
C              25.181              -0.102              6.18                
O              24.164              0.13                5.569               
C              25.894              2.12                7.03                
C              27.008              3.087               7.147               
H              26.028              1.977               4.27                
H              27.124              0.511               6.61                
H              25.119              2.581               6.599               
H              25.638              1.82                7.948               
N              28.149              2.783               7.852               
C              27.218              4.286               6.569               
C              29.008              3.785               7.739               
N              28.452              4.72                6.987               
H              28.306              1.942               8.366               
H              26.6                4.77                5.956               
H              29.912              3.827               8.149               
N              25.397              -1.243              6.844               
C              24.38               -2.292              6.832               
C              23.135              -1.754              7.44                
O              23.192              -1.032              8.45                
C              24.868              -3.544              7.613               
C              26.068              -4.207              6.937               
O              26.742              -4.991              7.582               
O              26.327              -3.977              5.737               
H              26.293              -1.308              7.334               
H              24.192              -2.5                5.87                
H              25.132              -3.249              8.516               
H              24.122              -4.187              7.644               
N              21.997              -2.162              6.883               
C              20.717              -1.632              7.321               
C              20.166              -0.552              6.41                
O              18.987              -0.262              6.438               
H              22.105              -2.868              6.134               
H              20.042              -2.393              7.383               
H              20.814              -1.256              8.263               
N              21.013              0.034               5.558               
C              20.505              1.046               4.652               
C              19.425              0.398               3.816               
O              19.616              -0.737              3.339               
C              21.638              1.587               3.792               
H              21.981              -0.28               5.606               
H              20.103              1.786               5.182               
H              22.254              2.136               4.357               
H              22.146              0.825               3.391               
H              21.261              2.156               3.062               
N              18.306              1.069               3.609               
C              17.138              0.374               3.019               
C              16.251              1.311               2.22                
O              16.352              2.582               2.299               
C              16.256              -0.238              4.156               
C              15.462              0.769               4.864               
C              14.126              0.964               4.565               
C              16.056              1.624               5.818               
C              13.385              1.97                5.208               
C              15.359              2.658               6.41                
C              14.009              2.815               6.153               
H              18.305              2.054               3.873               
H              17.511              -0.308              2.374               
H              15.656              -0.889              3.722               
H              16.877              -0.673              4.785               
H              13.671              0.393               3.89                
H              17.019              1.463               6.066               
H              12.414              2.086               4.993               
H              15.84               3.3                 7.031               
H              13.471              3.506               6.617               
N              15.347              0.668               1.515               
C              14.24               1.37                0.896               
C              13.002              0.461               0.845               
O              13.125              -0.782              0.879               
C              14.625              1.81                -0.519              
C              15.027              0.719               -1.518              
C              13.843              0.126               -2.341              
C              15.997              1.41                -2.411              
H              15.489              -0.358              1.441               
H              14.011              2.174               1.449               
H              13.841              2.296               -0.912              
H              15.399              2.441               -0.443              
H              15.475              -0.039              -1.019              
H              13.419              0.861               -2.858              
H              14.202              -0.568              -2.956              
H              13.189              -0.276              -1.709              
H              16.784              1.746               -1.882              
H              16.334              0.779               -3.119              
H              15.559              2.195               -2.865              
N              11.845              1.101               0.706               
C              10.554              0.449               0.378               
C              9.479               1.055               1.208               
C              9.684               0.593               2.672               
C              8.127               0.481               0.769               
C              9.332               -0.915              2.928               
H              11.914              2.144               0.851               
H              10.711              -0.523              0.47                
H              9.568               2.04                1.203               
H              10.635              0.73                2.922               
H              9.102               1.141               3.263               
H              7.411               0.836               1.364               
H              7.946               0.751               -0.173              
H              8.156               -0.513              0.834               
H              9.918               -1.465              2.35                
H              9.496               -1.106              3.885               
H              8.378               -1.047              2.697               
H              21.3858             0.788605            -6.01839            
H              10.3529             0.640738            -0.682664           
