219
5.xyz
C              10.081              -20.984             -21.923             
O              9.236               -20.247             -22.425             
N              9.928               -21.46              -20.696             
C              8.836               -21.109             -19.798             
C              9.116               -19.767             -19.13              
O              10.282              -19.355             -19.003             
C              8.642               -22.164             -18.703             
C              8.311               -23.522             -19.223             
C              7.727               -24.419             -18.266             
H              10.691              -22.141             -20.411             
H              8.001               -21.01              -20.346             
H              9.49                -22.218             -18.168             
H              7.899               -21.856             -18.1               
H              7.68                -23.406             -20.019             
H              9.17                -23.929             -19.602             
O              6.76                -24.082             -17.606             
N              8.338               -25.542             -18.186             
H              8.009               -26.303             -17.493             
H              9.144               -25.758             -18.763             
N              8.061               -19.136             -18.643             
C              8.181               -17.936             -17.867             
C              7.192               -17.955             -16.704             
O              6.098               -18.487             -16.827             
C              7.901               -16.673             -18.707             
C              8.896               -16.527             -19.84              
C              8.743               -15.215             -20.593             
O              9.664               -14.833             -21.292             
O              7.612               -14.67              -20.602             
H              7.145               -19.588             -18.874             
H              9.115               -17.846             -17.501             
H              7.013               -16.771             -19.093             
H              7.995               -15.904             -18.119             
H              9.803               -16.545             -19.462             
H              8.746               -17.255             -20.484             
N              7.524               -17.206             -15.678             
C              6.59                -16.9               -14.613             
C              6.967               -15.551             -14.041             
O              8.171               -15.264             -13.937             
C              6.575               -17.947             -13.46              
O              5.577               -17.55              -12.503             
C              7.875               -18.002             -12.68              
H              8.508               -16.852             -15.693             
H              5.672               -16.837             -14.998             
H              6.31                -18.845             -13.845             
H              8.037               -17.124             -12.222             
H              7.829               -18.727             -11.988             
H              8.639               -18.192             -13.302             
H              4.731               -17.284             -12.975             
N              5.92                -14.857             -13.63              
C              6.106               -13.564             -13.028             
C              5.624               -13.585             -11.577             
O              4.619               -14.189             -11.234             
C              5.381               -12.456             -13.802             
O              4.021               -12.751             -13.901             
C              6.01                -12.262             -15.176             
H              5.004               -15.309             -13.775             
H              7.086               -13.338             -13.025             
H              5.495               -11.575             -13.287             
H              6.512               -11.395             -15.2               
H              6.644               -13.014             -15.368             
H              5.294               -12.247             -15.878             
H              3.854               -13.747             -13.835             
N              6.384               -12.835             -10.755             
C              6.099               -12.626             -9.352              
C              6.034               -11.108             -9.188              
O              7.088               -10.443             -9.27               
C              7.168               -13.228             -8.437              
C              7.489               -14.737             -8.652              
C              8.565               -14.929             -9.761              
C              7.963               -15.358             -7.348              
H              7.218               -12.41              -11.242             
H              5.214               -12.999             -9.139              
H              8.018               -12.733             -8.582              
H              6.865               -13.132             -7.496              
H              6.656               -15.206             -8.926              
H              9.394               -14.456             -9.483              
H              8.741               -15.902             -9.867              
H              8.217               -14.546             -10.61              
H              7.246               -15.27              -6.655              
H              8.168               -16.327             -7.493              
H              8.789               -14.888             -7.033              
N              4.833               -10.561             -9.046              
C              4.628               -9.104              -9.067              
C              4.221               -8.685              -7.665              
O              3.28                -9.215              -7.109              
C              3.572               -8.73               -10.088             
C              3.279               -7.237              -10.013             
C              3.991               -9.156              -11.487             
H              4.054               -11.239             -8.92               
H              5.496               -8.676              -9.283              
H              2.726               -9.198              -9.851              
H              2.306               -7.08               -10.179             
H              3.522               -6.895              -9.106              
H              3.817               -6.757              -10.705             
H              4.606               -9.942              -11.423             
H              3.179               -9.407              -12.013             
H              4.461               -8.397              -11.937             
N              4.935               -7.697              -7.112              
C              4.613               -7.175              -5.789              
C              4.161               -5.728              -5.911              
O              4.791               -4.902              -6.565              
C              5.816               -7.266              -4.856              
C              6.133               -8.71               -4.494              
C              7.353               -8.831              -3.597              
N              7.579               -10.183             -3.085              
C              8.291               -11.092             -3.729              
N              8.855               -10.863             -4.905              
N              8.484               -12.289             -3.163              
H              5.716               -7.348              -7.695              
H              3.864               -7.715              -5.4                
H              6.6                 -6.885              -5.316              
H              5.606               -6.78               -4.025              
H              5.352               -9.111              -4.014              
H              6.31                -9.23               -5.331              
H              8.157               -8.542              -4.125              
H              7.231               -8.203              -2.822              
H              7.173               -10.427             -2.204              
H              8.759               -9.955              -5.325              
H              9.369               -11.578             -5.369              
H              8.109               -12.478             -2.258              
H              9.004               -12.989             -3.649              
N              3.1                 -5.451              -5.15               
C              2.637               -4.066              -5.078              
C              2.141               -3.801              -3.69               
O              1.902               -4.715              -2.888              
C              1.585               -3.821              -6.144              
C              0.329               -4.572              -5.852              
C              -0.614              -4.539              -7.041              
O              -1.3                -3.488              -7.293              
O              -0.54               -5.44               -7.898              
H              2.677               -6.233              -4.663              
H              3.394               -3.451              -5.3                
H              1.379               -2.865              -6.145              
H              1.944               -4.139              -6.995              
H              0.548               -5.51               -5.682              
H              -0.135              -4.146              -5.103              
N              1.992               -2.504              -3.465              
C              1.47                -2.066              -2.195              
C              0.081               -1.541              -2.366              
O              -0.156              -0.671              -3.222              
C              2.402               -0.977              -1.624              
C              3.819               -1.546              -1.29               
C              4.833               -0.479              -1.024              
C              3.751               -2.542              -0.155              
H              2.267               -1.883              -4.233              
H              1.446               -2.854              -1.567              
H              2.524               -0.29               -2.302              
H              2.021               -0.652              -0.791              
H              4.107               -2.119              -2.071              
H              4.547               0.085               -0.243              
H              5.725               -0.892              -0.815              
H              4.933               0.114               -1.829              
H              3.153               -3.306              -0.409              
H              4.668               -2.894              0.043               
H              3.385               -2.097              0.666               
N              -0.868              -2.044              -1.616              
C              -2.271              -1.606              -1.61               
C              -2.68               -1.437              -0.158              
O              -2.691              -2.399              0.602               
C              -3.209              -2.626              -2.277              
C              -2.782              -2.952              -3.737              
C              -4.618              -2.092              -2.311              
C              -3.621              -3.968              -4.446              
H              -0.537              -2.831              -0.979              
H              -2.279              -0.704              -2.019              
H              -3.166              -3.479              -1.758              
H              -2.791              -2.087              -4.251              
H              -1.828              -3.272              -3.702              
H              -5.233              -2.778              -2.702              
H              -4.922              -1.872              -1.383              
H              -4.655              -1.263              -2.871              
H              -4.569              -3.649              -4.499              
H              -3.271              -4.11               -5.374              
H              -3.595              -4.837              -3.948              
N              -3.017              -0.202              0.202               
C              -3.433              0.129               1.556               
C              -2.419              -0.371              2.573               
O              -2.794              -0.869              3.635               
C              -4.812              -0.464              1.852               
C              -5.929              0.547               1.686               
O              -5.929              1.274               0.671               
O              -6.807              0.616               2.572               
H              -2.957              0.502               -0.567              
H              -3.451              1.134               1.627               
H              -4.964              -1.216              1.221               
H              -4.811              -0.79               2.79                
N              -1.135              -0.242              2.253               
C              -0.093              -0.713              3.187               
C              0.154               -2.209              3.2                 
O              1.113               -2.599              3.887               
H              -0.936              0.191               1.348               
H              0.783               -0.227              2.965               
H              -0.343              -0.402              4.133               
N              -0.593              -3.001              2.477               
C              -0.337              -4.453              2.387               
C              0.456               -4.711              1.146               
O              0.332               -4.014              0.134               
C              -1.658              -5.18               2.284               
C              -2.569              -4.893              3.502               
C              -3.897              -5.601              3.307               
C              -4.906              -5.303              4.389               
N              -4.349              -4.354              5.371               
H              -1.378              -2.543              1.97                
H              0.189               -4.727              3.189               
H              -2.137              -4.874              1.476               
H              -1.493              -6.154              2.258               
H              -2.125              -5.24               4.314               
H              -2.718              -3.919              3.56                
H              -4.283              -5.32               2.422               
H              -3.732              -6.592              3.286               
H              -5.726              -4.908              3.972               
H              -5.151              -6.156              4.852               
H              -4.186              -4.824              6.241               
H              -3.483              -3.983              5.03                
H              -4.994              -3.602              5.518               
N              1.271               -5.75               1.172               
H              1.311               -6.27               2.057               
H              10.9451             -21.2625            -22.4584            
H              1.81361             -5.99424            0.34698             
