301
1.xyz
C              -18.892             8.335               11.476              
O              -18.304             8.485               12.541              
N              -19.829             7.411               11.294              
C              -20.21              6.473               12.35               
C              -19.039             5.563               12.742              
O              -18.809             5.303               13.925              
C              -21.413             5.64                11.894              
C              -21.863             4.576               12.871              
C              -22.752             4.878               13.894              
C              -21.418             3.26                12.755              
C              -23.18              3.901               14.786              
C              -21.842             2.278               13.637              
C              -22.723             2.606               14.651              
O              -23.148             1.642               15.535              
H              -20.264             7.411               10.349              
H              -20.476             7.003               13.164              
H              -22.181             6.263               11.735              
H              -21.171             5.189               11.033              
H              -23.093             5.815               13.995              
H              -20.783             3.022               12.022              
H              -23.818             4.139               15.521              
H              -21.513             1.339               13.541              
H              -22.904             0.741               15.18               
N              -18.297             5.079               11.75               
C              -17.14              4.22                12.014              
C              -16.09              4.92                12.884              
O              -15.486             4.295               13.748              
C              -16.513             3.726               10.705              
C              -17.268             2.563               10.051              
C              -16.889             2.423               8.588               
C              -17.007             1.266               10.803              
H              -18.599             5.354               10.8                
H              -17.458             3.397               12.504              
H              -16.513             4.477               10.065              
H              -15.599             3.413               10.903              
H              -18.252             2.734               10.127              
H              -15.906             2.25                8.51                
H              -17.393             1.659               8.182               
H              -17.116             3.267               8.099               
H              -17.315             1.361               11.75               
H              -17.506             0.518               10.364              
H              -16.027             1.064               10.791              
N              -15.885             6.215               12.662              
C              -14.937             6.986               13.465              
C              -15.529             7.362               14.822              
O              -14.941             7.076               15.869              
C              -14.508             8.25                12.715              
C              -13.522             9.181               13.43               
C              -12.252             8.439               13.835              
C              -13.185             10.367              12.545              
H              -16.442             6.621               11.889              
H              -14.117             6.421               13.622              
H              -14.078             7.966               11.858              
H              -15.329             8.783               12.519              
H              -13.963             9.553               14.249              
H              -11.807             8.071               13.019              
H              -11.631             9.071               14.298              
H              -12.488             7.69                14.453              
H              -14.02              10.877              12.333              
H              -12.541             10.969              13.02               
H              -12.769             10.044              11.693              
N              -16.697             7.997               14.796              
C              -17.294             8.591               15.998              
C              -17.885             7.588               16.986              
O              -17.952             7.87                18.182              
C              -18.389             9.583               15.605              
C              -17.907             10.773              14.795              
C              -19.095             11.603              14.338              
N              -18.733             12.656              13.392              
C              -19.607             13.458              12.784              
N              -20.914             13.338              13.014              
N              -19.176             14.386              11.937              
H              -17.15              8.038               13.859              
H              -16.572             9.131               16.48               
H              -19.071             9.095               15.063              
H              -18.811             9.929               16.442              
H              -17.326             11.345              15.357              
H              -17.424             10.455              13.991              
H              -19.756             10.987              13.906              
H              -19.512             12.018              15.149              
H              -17.755             12.786              13.184              
H              -21.254             12.659              13.66               
H              -21.559             13.937              12.534              
H              -18.192             14.49               11.775              
H              -19.826             14.977              11.465              
N              -18.333             6.437               16.491              
C              -18.97              5.432               17.343              
C              -18.136             4.159               17.456              
O              -17.763             3.757               18.558              
C              -20.389             5.077               16.841              
C              -20.994             3.968               17.691              
C              -21.285             6.309               16.856              
H              -18.195             6.316               15.471              
H              -19.066             5.824               18.27               
H              -20.3               4.722               15.917              
H              -20.31              3.256               17.847              
H              -21.289             4.344               18.569              
H              -21.781             3.575               17.216              
H              -21.823             6.314               17.698              
H              -20.717             7.13                16.814              
H              -21.896             6.281               16.066              
N              -17.836             3.53                16.324              
C              -17.198             2.21                16.345              
C              -15.769             2.286               16.884              
O              -15.435             1.611               17.86               
C              -17.203             1.534               14.957              
C              -16.523             0.173               15.026              
C              -18.631             1.381               14.441              
H              -18.082             4.033               15.458              
H              -17.73              1.616               16.961              
H              -16.662             2.1                 14.344              
H              -16.423             -0.102              15.982              
H              -17.079             -0.502              14.542              
H              -15.62              0.229               14.6                
H              -18.676             1.709               13.498              
H              -18.891             0.417               14.476              
H              -19.247             1.918               15.016              
N              -14.935             3.11                16.26               
C              -13.538             3.232               16.679              
C              -13.435             3.803               18.091              
O              -12.656             3.309               18.911              
C              -12.747             4.096               15.695              
C              -11.234             4.189               15.92               
C              -10.573             2.819               15.832              
C              -10.628             5.142               14.905              
H              -15.345             3.643               15.475              
H              -13.122             2.315               16.676              
H              -12.887             3.723               14.779              
H              -13.111             5.024               15.741              
H              -11.065             4.581               16.827              
H              -10.735             2.428               14.926              
H              -9.589              2.913               15.983              
H              -10.961             2.216               16.529              
H              -11.036             6.05                15.011              
H              -9.639              5.204               15.05               
H              -10.806             4.805               13.979              
N              -14.227             4.833               18.374              
C              -14.248             5.459               19.7                
C              -14.533             4.43                20.797              
O              -13.838             4.387               21.813              
C              -15.299             6.568               19.747              
C              -15.244             7.454               20.991              
C              -16.35              8.504               20.978              
C              -16.083             9.619               19.969              
N              -17.334             10.316              19.552              
H              -14.824             5.154               17.585              
H              -13.348             5.876               19.876              
H              -15.175             7.153               18.944              
H              -16.205             6.143               19.708              
H              -15.352             6.881               21.802              
H              -14.359             7.916               21.022              
H              -17.211             8.061               20.738              
H              -16.419             8.911               21.886              
H              -15.457             10.286              20.383              
H              -15.641             9.222               19.159              
H              -18.093             9.666               19.561              
H              -17.523             11.063              20.188              
H              -17.216             10.682              18.63               
N              -15.543             3.593               20.571              
C              -15.954             2.589               21.553              
C              -14.897             1.494               21.741              
O              -14.605             1.095               22.866              
C              -17.301             1.935               21.162              
O              -18.308             2.946               21.023              
C              -17.738             0.935               22.224              
H              -16.009             3.712               19.649              
H              -16.091             3.049               22.443              
H              -17.188             1.47                20.261              
H              -17.322             0.042               22.041              
H              -17.448             1.253               23.129              
H              -18.736             0.842               22.212              
H              -18.226             3.4                 20.129              
N              -14.327             1.007               20.644              
C              -13.302             -0.035              20.73               
C              -12.029             0.495               21.384              
O              -11.42              -0.191              22.206              
C              -12.986             -0.635              19.355              
C              -13.727             -1.94               19.059              
C              -15.23              -1.707              19.036              
C              -13.252             -2.552              17.752              
H              -14.658             1.413               19.755              
H              -13.659             -0.788              21.294              
H              -13.253             0.022               18.668              
H              -12.019             -0.826              19.321              
H              -13.505             -2.608              19.769              
H              -15.454             -1.039              18.326              
H              -15.699             -2.569              18.841              
H              -15.528             -1.36               19.925              
H              -12.272             -2.747              17.809              
H              -13.75              -3.403              17.579              
H              -13.42              -1.912              17.001              
N              -11.641             1.717               21.031              
C              -10.396             2.303               21.538              
C              -10.339             2.357               23.064              
O              -9.283              2.121               23.651              
C              -10.181             3.712               20.975              
C              -8.773              4.187               21.152              
C              -8.237              4.781               22.26               
C              -7.714              4.096               20.194              
N              -6.91               5.064               22.048              
C              -6.563              4.65                20.79               
C              -7.626              3.592               18.89               
C              -5.338              4.727               20.123              
C              -6.411              3.667               18.229              
C              -5.283              4.227               18.848              
H              -12.279             2.21                20.381              
H              -9.633              1.714               21.226              
H              -10.372             3.702               20.006              
H              -10.771             4.342               21.455              
H              -8.736              4.981               23.101              
H              -6.296              5.501               22.704              
H              -8.418              3.186               18.443              
H              -4.541              5.136               20.573              
H              -6.341              3.318               17.3                
H              -4.422              4.257               18.338              
N              -11.472             2.669               23.696              
C              -11.536             2.835               25.155              
C              -11.676             1.516               25.921              
O              -11.604             1.502               27.153              
C              -12.681             3.784               25.546              
C              -14.084             3.204               25.403              
C              -15.157             4.252               25.651              
C              -16.552             3.638               25.633              
N              -17.621             4.651               25.872              
H              -12.298             2.784               23.075              
H              -10.685             3.298               25.464              
H              -12.548             4.051               26.502              
H              -12.617             4.6                 24.966              
H              -14.192             2.842               24.476              
H              -14.197             2.46                26.063              
H              -15.005             4.665               26.543              
H              -15.107             4.942               24.937              
H              -16.704             3.205               24.739              
H              -16.605             2.931               26.345              
H              -17.63              5.305               25.117              
H              -18.505             4.19                25.928              
H              -17.436             5.129               26.729              
N              -11.891             0.416               25.204              
C              -12.021             -0.897              25.839              
C              -10.723             -1.272              26.552              
O              -9.633              -0.967              26.072              
C              -12.373             -1.956              24.792              
C              -12.84              -3.257              25.37               
H              -11.957             0.565               24.181              
H              -12.753             -0.847              26.523              
H              -13.101             -1.597              24.195              
H              -11.56              -2.137              24.225              
N              -11.976             -4.194              25.894              
C              -14.081             -3.785              25.486              
C              -12.664             -5.238              26.319              
N              -13.945             -5.016              26.081              
H              -10.981             -4.095              25.944              
H              -14.935             -3.362              25.194              
H              -12.284             -6.054              26.745              
N              -10.843             -1.944              27.693              
C              -9.663              -2.281              28.497              
C              -8.67               -3.209              27.787              
O              -7.509              -3.279              28.18               
C              -10.072             -2.89               29.845              
C              -10.744             -4.262              29.765              
C              -10.737             -5.003              31.095              
H              -11.807             -2.201              27.957              
H              -9.175              -1.414              28.707              
H              -9.251              -2.982              30.418              
H              -10.711             -2.26               30.302              
H              -11.692             -4.135              29.477              
H              -10.258             -4.815              29.089              
O              -9.837              -4.825              31.916              
N              -11.737             -5.848              31.305              
H              -11.791             -6.389              32.164              
H              -12.455             -5.949              30.589              
N              -9.124              -3.921              26.759              
C              -8.253              -4.828              25.999              
C              -7.779              -4.256              24.661              
O              -7.157              -4.971              23.875              
C              -8.958              -6.171              25.749              
C              -9.26               -6.962              26.995              
C              -8.507              -6.815              28.157              
C              -10.288             -7.897              26.987              
C              -8.792              -7.565              29.291              
C              -10.574             -8.651              28.119              
C              -9.826              -8.482              29.271              
H              -10.129             -3.785              26.541              
H              -7.422              -4.974              26.564              
H              -9.816              -5.979              25.292              
H              -8.365              -6.719              25.175              
H              -7.754              -6.163              28.179              
H              -10.83              -8.029              26.156              
H              -8.238              -7.434              30.123              
H              -11.332             -9.324              28.092              
H              -10.031             -9.021              30.089              
N              -8.05               -2.976              24.409              
C              -7.707              -2.35               23.127              
C              -8.49               -1.054              22.944              
H              -8.517              -2.468              25.184              
H              -8.007              -2.967              22.377              
H              -9.283              -1.056              23.551              
H              -7.903              -0.277              23.165              
H              -8.796              -0.982              21.996              
H              -18.6554            8.94504             10.6328             
H              -6.63054            -2.15539            23.0049             
