354
3.xyz
C              14.634              -4.162              -9.048              
O              14.998              -5.291              -9.374              
N              13.843              -3.918              -8.005              
C              13.306              -4.971              -7.145              
C              12.035              -5.573              -7.798              
O              11.497              -6.574              -7.308              
C              12.996              -4.389              -5.758              
C              12.442              -5.384              -4.746              
C              13.29               -6.643              -4.656              
C              13.163              -7.305              -3.295              
N              11.757              -7.645              -2.954              
H              13.637              -2.902              -7.852              
H              13.982              -5.699              -7.051              
H              13.844              -4.004              -5.387              
H              12.325              -3.653              -5.875              
H              12.413              -4.948              -3.843              
H              11.511              -5.639              -5.016              
H              12.986              -7.286              -5.352              
H              14.244              -6.401              -4.804              
H              13.716              -8.147              -3.29               
H              13.531              -6.681              -2.594              
H              11.387              -6.95               -2.338              
H              11.21               -7.676              -3.791              
H              11.73               -8.538              -2.504              
N              11.57               -4.954              -8.883              
C              10.386              -5.444              -9.573              
C              9.079               -4.713              -9.35               
O              8.049               -5.154              -9.862              
H              12.109              -4.124              -9.178              
H              10.585              -5.467              -10.593             
H              10.253              -6.445              -9.329              
N              9.09                -3.615              -8.602              
C              7.858               -2.875              -8.376              
C              7.637               -1.921              -9.577              
O              8.592               -1.47               -10.213             
C              7.907               -2.072              -7.07               
C              7.818               -2.889              -5.776              
C              9.117               -3.63               -5.501              
C              7.46                -1.986              -4.607              
H              10.005              -3.349              -8.216              
H              7.094               -3.51               -8.347              
H              8.77                -1.577              -7.049              
H              7.143               -1.437              -7.074              
H              7.069               -3.55               -5.862              
H              9.865               -2.972              -5.411              
H              9.031               -4.154              -4.653              
H              9.313               -4.254              -6.258              
H              6.576               -1.55               -4.779              
H              7.405               -2.529              -3.768              
H              8.163               -1.281              -4.5                
N              6.383               -1.624              -9.882              
C              6.073               -0.729              -10.983             
C              5.926               0.682               -10.359             
O              5.822               0.815               -9.134              
C              4.772               -1.156              -11.692             
O              4.767               -2.58               -11.856             
C              4.635               -0.493              -13.053             
H              5.666               -2.073              -9.284              
H              6.834               -0.703              -11.61              
H              3.979               -0.9                -11.105             
H              5.51                -0.085              -13.323             
H              4.366               -1.174              -13.738             
H              3.937               0.226               -13.013             
H              4.339               -3.022              -11.061             
N              5.919               1.721               -11.191             
C              5.776               3.095               -10.694             
C              4.452               3.247               -9.916              
O              4.387               3.976               -8.938              
C              5.822               4.106               -11.84              
C              7.227               4.366               -12.343             
O              7.754               3.537               -13.117             
O              7.804               5.41                -11.985             
H              6.02                1.485               -12.192             
H              6.516               3.254               -10.038             
H              5.275               3.746               -12.589             
H              5.436               4.961               -11.511             
N              3.411               2.549               -10.372             
C              2.09                2.586               -9.735              
C              2.209               2.075               -8.284              
O              1.664               2.669               -7.35               
C              1.114               1.715               -10.538             
C              -0.313              2.246               -10.602             
C              -1.017              2.247               -9.263              
O              -1.395              1.156               -8.785              
O              -1.204              3.337               -8.683              
H              3.615               1.975               -11.22              
H              1.743               3.521               -9.726              
H              1.454               1.662               -11.463             
H              1.083               0.828               -10.109             
H              -0.278              3.177               -10.924             
H              -0.829              1.668               -11.211             
N              2.931               0.969               -8.116              
C              3.147               0.35                -6.797              
C              4.058               1.21                -5.913              
O              3.849               1.314               -4.702              
C              3.776               -1.044              -6.917              
C              2.86                -2.108              -7.491              
C              2.9                 -2.176              -8.999              
O              2.143               -1.435              -9.653              
O              3.679               -2.986              -9.537              
H              3.332               0.575               -8.995              
H              2.259               0.222               -6.338              
H              4.558               -0.966              -7.514              
H              4.039               -1.33               -6.01               
H              3.149               -2.984              -7.144              
H              1.935               -1.896              -7.226              
N              5.067               1.826               -6.528              
C              6.01                2.688               -5.805              
C              5.26                3.932               -5.295              
O              5.462               4.355               -4.158              
C              7.19                3.127               -6.697              
C              8.018               1.913               -7.112              
C              8.064               4.148               -5.974              
C              9.19                2.257               -8.001              
H              5.129               1.647               -7.549              
H              6.293               2.18                -4.997              
H              6.814               3.541               -7.518              
H              8.356               1.464               -6.287              
H              7.42                1.279               -7.6                
H              8.797               4.447               -6.582              
H              7.508               4.933               -5.711              
H              8.457               3.729               -5.158              
H              9.8                 2.885               -7.519              
H              9.687               1.422               -8.234              
H              8.857               2.692               -8.837              
N              4.399               4.506               -6.142              
C              3.612               5.693               -5.776              
C              2.767               5.325               -4.543              
O              2.707               6.091               -3.588              
C              2.71                6.142               -6.928              
C              2.078               7.494               -6.669              
O              2.697               8.522               -7.027              
O              0.966               7.545               -6.107              
H              4.334               4.046               -7.072              
H              4.251               6.394               -5.489              
H              3.266               6.2                 -7.748              
H              1.992               5.467               -7.036              
N              2.125               4.149               -4.579              
C              1.289               3.665               -3.459              
C              2.144               3.502               -2.178              
O              1.686               3.82                -1.075              
C              0.632               2.332               -3.823              
C              -0.295              1.789               -2.746              
S              -1.661              2.905               -2.37               
C              -2.495              2.977               -3.954              
H              2.262               3.607               -5.455              
H              0.59                4.355               -3.272              
H              0.1                 2.45                -4.671              
H              1.353               1.649               -3.996              
H              -0.647              0.875               -3.052              
H              0.261               1.599               -1.904              
H              -3.276              3.601               -3.894              
H              -1.859              3.307               -4.653              
H              -2.819              2.064               -4.205              
N              3.376               3.012               -2.331              
C              4.289               2.826               -1.191              
C              4.581               4.218               -0.575              
O              4.496               4.391               0.649               
C              5.576               2.145               -1.633              
H              3.634               2.776               -3.308              
H              3.84                2.269               -0.503              
H              5.854               1.476               -0.944              
H              5.426               1.68                -2.505              
H              6.297               2.83                -1.741              
N              4.921               5.201               -1.419              
C              5.206               6.548               -0.922              
C              3.953               7.122               -0.242              
O              4.049               7.753               0.808               
C              5.669               7.465               -2.059              
C              6.042               8.844               -1.593              
C              7.159               9.042               -0.797              
C              5.273               9.942               -1.946              
C              7.501               10.307              -0.363              
C              5.612               11.21               -1.514              
C              6.726               11.393              -0.721              
H              4.962               4.932               -2.412              
H              5.901               6.458               -0.209              
H              6.465               7.055               -2.472              
H              4.925               7.549               -2.701              
H              7.725               8.263               -0.534              
H              4.463               9.813               -2.521              
H              8.318               10.432              0.217               
H              5.036               12.002              -1.782              
H              6.976               12.31               -0.404              
N              2.787               6.895               -0.843              
C              1.539               7.392               -0.288              
C              1.276               6.88                1.128               
O              0.769               7.616               1.982               
C              0.38                6.989               -1.206              
C              -0.91               7.754               -0.957              
C              -0.801              9.217               -1.341              
H              2.849               6.345               -1.721              
H              1.597               8.403               -0.24               
H              0.656               7.144               -2.157              
H              0.193               6.012               -1.076              
H              -1.64               7.337               -1.497              
H              -1.136              7.695               0.015               
O              -0.436              10.065              -0.524              
N              -1.111              9.525               -2.588              
H              -1.075              10.489              -2.916              
H              -1.389              8.78                -3.227              
N              1.623               5.62                1.37                
C              1.409               5.014               2.682               
C              2.56                5.101               3.661               
O              2.438               4.635               4.798               
C              1.024               3.545               2.508               
C              -0.441              3.254               2.805               
C              -1.391              4.047               1.932               
H              2.047               5.119               0.57                
H              0.6                 5.487               3.108               
H              1.209               3.273               1.563               
H              1.582               2.99                3.127               
H              -0.609              2.278               2.656               
H              -0.623              3.479               3.764               
O              -1.795              5.154               2.282               
N              -1.759              3.489               0.793               
H              -2.406              3.956               0.161               
H              -1.382              2.571               0.548               
N              3.666               5.695               3.225               
C              4.876               5.843               4.044               
C              4.819               6.858               5.154               
O              5.677               6.869               6.046               
C              6.081               6.135               3.146               
O              5.97                7.402               2.518               
H              3.605               6.052               2.242               
H              5.071               4.922               4.463               
H              6.908               6.121               3.704               
H              6.135               5.429               2.443               
H              5.175               7.405               1.914               
N              3.818               7.72                5.115               
C              3.6                 8.637               6.212               
C              2.672               8.035               7.242               
O              3.003               7.038               7.886               
H              3.231               7.68                4.266               
H              4.483               8.861               6.647               
H              3.2                 9.495               5.862               
N              1.511               8.634               7.401               
C              0.474               8.076               8.243               
C              -0.888              8.444               7.674               
O              -1.51               9.423               8.092               
C              0.588               8.563               9.702               
O              1.92                8.341               10.191              
C              -0.403              7.832               10.596              
H              1.404               9.53                6.877               
H              0.556               7.077               8.241               
H              0.403               9.567               9.729               
H              0.08                7.157               11.158              
H              -0.867              8.487               11.196              
H              -1.086              7.362               10.033              
H              2.474               7.875               9.493               
N              -1.324              7.682               6.683               
C              -2.574              7.96                6.007               
C              -3.124              6.705               5.354               
O              -2.435              5.688               5.262               
C              -2.384              9.054               4.966               
H              -0.702              6.884               6.44                
H              -3.246              8.291               6.683               
H              -1.966              8.665               4.145               
H              -3.271              9.45                4.731               
H              -1.789              9.767               5.336               
N              -4.367              6.794               4.911               
C              -5.036              5.703               4.223               
C              -6.312              6.223               3.582               
O              -7.355              6.3                 4.234               
C              -5.346              4.562               5.182               
H              -4.827              7.717               5.098               
H              -4.434              5.353               3.503               
H              -4.546              3.968               5.263               
H              -5.576              4.934               6.081               
H              -6.119              4.033               4.833               
N              -6.219              6.614               2.321               
C              -7.351              7.219               1.628               
C              -8.461              6.2                 1.414               
O              -9.644              6.518               1.544               
C              -6.912              7.816               0.294               
C              -8.012              8.625               -0.361              
O              -8.374              9.693               0.181               
O              -8.508              8.208               -1.426              
H              -5.295              6.457               1.878               
H              -7.72               7.936               2.23                
H              -6.136              8.41                0.463               
H              -6.66               7.071               -0.31               
N              -8.076              4.974               1.097               
C              -9.03               3.887               0.977               
C              -9.175              3.191               2.325               
O              -8.199              2.669               2.863               
C              -8.579              2.889               -0.091              
C              -9.541              1.73                -0.284              
C              -9.062              0.745               -1.328              
O              -8.332              -0.202              -0.969              
O              -9.423              0.903               -2.512              
H              -7.054              4.861               0.945               
H              -9.92               4.243               0.688               
H              -8.518              3.372               -0.944              
H              -7.715              2.517               0.192               
H              -9.617              1.248               0.569               
H              -10.403             2.091               -0.588              
N              -10.388             3.198               2.9                 
C              -10.652             2.597               4.21                
C              -10.428             1.086               4.215               
O              -11.301             0.315               3.815               
C              -12.126             2.928               4.481               
C              -12.458             4.028               3.532               
C              -11.598             3.801               2.324               
H              -10.09              3.042               4.926               
H              -12.703             2.121               4.316               
H              -12.251             3.222               5.434               
H              -13.435             4.001               3.287               
H              -12.263             4.925               3.949               
H              -12.03              3.174               1.678               
H              -11.378             4.66                1.863               
N              -9.24               0.688               4.646               
C              -8.846              -0.715              4.731               
C              -7.589              -0.843              5.585               
O              -7.441              -1.802              6.346               
C              -8.593              -1.308              3.34                
O              -9.792              -1.399              2.588               
H              -8.599              1.473               4.924               
H              -9.581              -1.219              5.187               
H              -7.949              -0.722              2.855               
H              -8.208              -2.221              3.448               
H              -10.478             -0.788              2.981               
N              -6.692              0.133               5.436               
C              -5.474              0.23                6.238               
C              -4.486              -0.895              5.928               
O              -4.702              -2.055              6.282               
C              -5.812              0.245               7.733               
O              -6.655              1.343               8.057               
H              -6.937              0.828               4.69                
H              -5.022              1.106               6.015               
H              -6.281              -0.601              7.964               
H              -4.966              0.324               8.252               
H              -7.449              1.341               7.451               
N              -3.388              -0.538              5.27                
C              -2.295              -1.475              5.019               
C              -1.364              -1.522              6.231               
O              -0.207              -1.932              6.137               
C              -1.511              -1.058              3.77                
C              -2.324              -1.007              2.473               
C              -1.456              -0.528              1.319               
C              -2.918              -2.373              2.159               
O              -1.581              -1.192              7.402               
H              -3.373              0.453               4.953               
H              -2.68               -2.389              4.881               
H              -1.147              -0.148              3.928               
H              -0.779              -1.713              3.637               
H              -3.091              -0.378              2.596               
H              -0.687              -1.156              1.196               
H              -2                  -0.5                0.48                
H              -1.108              0.388               1.52                
H              -3.519              -2.656              2.907               
H              -3.445              -2.321              1.31                
H              -2.181              -3.042              2.053               
H              14.9439             -3.30766            -9.60499            
