208
2.xyz
C              22.013              -6.16               10.015              
O              22.929              -6.978              10.069              
N              21.554              -5.644              8.877               
C              22.191              -5.921              7.592               
C              23.494              -5.133              7.505               
O              23.493              -3.922              7.667               
C              21.268              -5.49               6.457               
O              21.891              -5.656              5.194               
H              20.717              -5.037              8.981               
H              22.416              -6.893              7.558               
H              20.441              -6.045              6.484               
H              21.036              -4.528              6.578               
H              21.285              -5.316              4.477               
N              24.604              -5.823              7.286               
C              25.91               -5.16               7.198               
C              26.726              -5.745              6.068               
O              26.426              -6.828              5.574               
C              26.726              -5.282              8.508               
C              27.139              -6.741              8.772               
C              25.94               -4.681              9.663               
C              28.178              -6.926              9.891               
H              24.477              -6.845              7.184               
H              25.718              -4.204              6.959               
H              27.556              -4.743              8.402               
H              26.322              -7.264              9.01                
H              27.521              -7.117              7.927               
H              26.498              -4.697              10.491              
H              25.696              -3.737              9.446               
H              25.108              -5.213              9.814               
H              27.8                -6.57               10.739              
H              28.377              -7.896              9.984               
H              29.003              -6.427              9.646               
N              27.769              -5.028              5.666               
C              28.725              -5.567              4.717               
C              30.115              -5.341              5.28                
O              30.479              -4.197              5.631               
C              28.619              -4.9                3.342               
O              27.292              -5.071              2.816               
C              29.63               -5.527              2.39                
H              27.835              -4.081              6.078               
H              28.574              -6.548              4.63                
H              28.79               -3.898              3.443               
H              29.502              -6.521              2.365               
H              29.503              -5.156              1.468               
H              30.561              -5.323              2.701               
H              27.325              -5.177              1.818               
N              30.884              -6.421              5.408               
C              32.274              -6.29               5.837               
C              33.186              -6.158              4.624               
O              33.001              -6.852              3.616               
C              32.709              -7.473              6.698               
C              32.004              -7.502              8.033               
O              32.242              -6.588              8.846               
O              31.217              -8.438              8.279               
H              30.43               -7.317              5.187               
H              32.346              -5.433              6.355               
H              32.496              -8.307              6.203               
H              33.687              -7.398              6.852               
N              34.158              -5.255              4.719               
C              35.161              -5.092              3.679               
C              36.527              -5.392              4.269               
O              36.924              -4.787              5.266               
C              35.152              -3.662              3.135               
S              33.559              -3.115              2.484               
H              34.136              -4.685              5.59                
H              34.979              -5.757              2.956               
H              35.417              -3.047              3.877               
H              35.828              -3.607              2.4                 
N              37.235              -6.339              3.659               
C              38.531              -6.776              4.164               
C              39.533              -6.755              3.031               
O              39.304              -7.367              1.983               
C              38.411              -8.185              4.754               
C              39.717              -8.968              4.852               
C              40.205              -9.066              6.294               
N              39.095              -9.22               7.233               
C              39.228              -9.231              8.557               
N              38.158              -9.365              9.335               
N              40.43               -9.105              9.105               
H              36.79               -6.733              2.806               
H              38.831              -6.141              4.876               
H              38.031              -8.105              5.676               
H              37.781              -8.71               4.181               
H              39.576              -9.892              4.509               
H              40.42               -8.507              4.318               
H              40.807              -9.855              6.362               
H              40.704              -8.231              6.506               
H              38.169              -9.325              6.853               
H              37.25               -9.479              8.944               
H              38.269              -9.353              10.336              
H              41.237              -9.022              8.514               
H              40.533              -9.094              10.097              
N              40.628              -6.027              3.227               
C              41.632              -5.876              2.181               
C              42.181              -7.239              1.734               
O              42.462              -8.107              2.569               
C              42.774              -4.974              2.652               
C              43.664              -4.541              1.507               
C              44.877              -3.753              1.946               
O              45.511              -3.136              1.069               
O              45.183              -3.749              3.159               
H              40.702              -5.589              4.162               
H              41.23               -5.406              1.386               
H              42.377              -4.173              3.045               
H              43.318              -5.486              3.28                
H              43.987              -5.35               1.042               
H              43.137              -3.964              0.904               
N              42.304              -7.427              0.418               
C              42.812              -8.686              -0.138              
C              44.314              -8.8                0.089               
O              44.985              -7.805              0.364               
C              42.532              -8.817              -1.647              
O              43.181              -7.755              -2.352              
C              41.033              -8.772              -1.93               
H              42.015              -6.621              -0.166              
H              42.359              -9.447              0.337               
H              42.919              -9.703              -1.977              
H              40.526              -9.031              -1.106              
H              40.768              -7.845              -2.203              
H              40.809              -9.41               -2.669              
H              42.791              -6.867              -2.085              
N              44.84               -10.012             -0.021              
C              46.259              -10.228             0.201               
C              47.13               -9.629              -0.889              
O              48.311              -9.35               -0.662              
H              44.174              -10.762             -0.27               
H              46.524              -9.827              1.097               
H              46.442              -11.227             0.262               
N              46.546              -9.423              -2.068              
C              47.284              -8.907              -3.214              
C              47.009              -7.424              -3.438              
O              47.462              -6.837              -4.426              
C              46.904              -9.682              -4.469              
O              45.626              -9.289              -4.931              
H              45.534              -9.659              -2.097              
H              48.27               -9.013              -3.025              
H              47.576              -9.498              -5.179              
H              46.886              -10.654             -4.255              
H              45.176              -8.73               -4.235              
N              46.263              -6.82               -2.519              
C              45.922              -5.406              -2.626              
C              47.148              -4.542              -2.367              
O              47.808              -4.693              -1.341              
C              44.829              -5.047              -1.625              
O              44.723              -3.646              -1.456              
H              45.952              -7.427              -1.738              
H              45.612              -5.23               -3.565              
H              43.958              -5.4                -1.958              
H              45.049              -5.463              -0.745              
H              45.009              -3.398              -0.531              
N              47.441              -3.639              -3.297              
C              48.55               -2.71               -3.128              
C              48.102              -1.276              -3.394              
O              47.713              -0.932              -4.514              
C              49.723              -3.086              -4.045              
C              50.404              -4.41               -3.692              
C              50.918              -4.429              -2.247              
C              51.822              -5.643              -2.008              
N              51.986              -6.012              -0.56               
H              46.826              -3.654              -4.131              
H              48.887              -2.771              -2.181              
H              49.379              -3.153              -4.98               
H              50.406              -2.36               -3.99               
H              49.746              -5.155              -3.807              
H              51.178              -4.553              -4.309              
H              51.445              -3.607              -2.085              
H              50.145              -4.487              -1.633              
H              51.437              -6.435              -2.504              
H              52.734              -5.449              -2.399              
H              51.881              -6.999              -0.463              
H              52.894              -5.735              -0.256              
H              51.289              -5.541              -0.025              
N              48.153              -0.461              -2.344              
C              47.896              0.971               -2.432              
C              48.681              1.544               -3.607              
O              49.834              1.168               -3.816              
C              48.34               1.635               -1.13               
C              48.163              3.132               -1.097              
C              46.97               3.695               -0.679              
C              49.19               3.98                -1.482              
C              46.801              5.062               -0.642              
C              49.034              5.344               -1.452              
C              47.84               5.882               -1.029              
O              47.694              7.247               -0.999              
H              48.395              -0.94               -1.443              
H              46.922              1.108               -2.611              
H              47.808              1.24                -0.38               
H              49.31               1.432               -0.991              
H              46.213              3.097               -0.398              
H              50.06               3.587               -1.786              
H              45.933              5.458               -0.336              
H              49.784              5.947               -1.736              
H              46.776              7.473               -0.675              
N              48.073              2.454               -4.384              
C              46.752              3.092               -4.28               
C              46.905              4.324               -5.175              
C              47.849              3.869               -6.237              
C              48.84               2.982               -5.527              
H              46.576              3.383               -3.314              
H              46.024              4.588               -5.566              
H              47.285              5.09                -4.66               
H              47.361              3.358               -6.95               
H              48.312              4.653               -6.659              
H              49.15               2.236               -6.116              
H              49.633              3.503               -5.207              
H              45.9118             2.48806             -4.65342            
H              33.3984             -3.96727            1.49055             
H              21.5286             -5.84172            10.8903             
