284
3.xyz
C              21.674              -1.311              24.76               
O              21.928              -0.808              25.85               
N              22.216              -2.466              24.377              
C              22.912              -3.285              25.374              
C              24.351              -2.825              25.612              
O              25.195              -2.974              24.754              
C              22.911              -4.773              25.011              
C              23.666              -5.603              26.045              
C              23.845              -7.048              25.627              
C              24.438              -7.828              26.803              
N              24.567              -9.286              26.537              
H              22.111              -2.712              23.396              
H              22.406              -3.228              26.25               
H              21.976              -5.087              24.982              
H              23.357              -4.881              24.137              
H              24.573              -5.19               26.19               
H              23.16               -5.574              26.915              
H              22.969              -7.435              25.408              
H              24.474              -7.095              24.874              
H              25.348              -7.447              27.013              
H              23.848              -7.689              27.61               
H              25.449              -9.467              26.102              
H              24.51               -9.787              27.4                
H              23.828              -9.579              25.931              
N              24.624              -2.294              26.799              
C              25.967              -1.812              27.137              
C              26.932              -3.002              27.269              
O              26.669              -3.945              28.04               
C              25.89               -0.993              28.43               
C              27.183              -0.239              28.762              
H              23.822              -2.25               27.455              
H              26.289              -1.263              26.365              
H              25.154              -0.324              28.339              
H              25.688              -1.613              29.187              
O              27.433              0.069               29.93               
N              27.982              0.091               27.754              
H              27.706              -0.16               26.818              
H              28.832              0.574               27.916              
N              28.024              -2.967              26.498              
C              29.053              -4.009              26.532              
C              30.441              -3.378              26.536              
O              30.604              -2.243              26.117              
C              28.945              -4.979              25.319              
C              27.587              -5.711              25.301              
C              29.162              -4.247              24.007              
H              28.079              -2.134              25.871              
H              28.944              -4.526              27.385              
H              29.645              -5.677              25.429              
H              26.86               -5.048              25.455              
H              27.467              -6.148              24.414              
H              27.58               -6.398              26.023              
H              28.838              -4.817              23.251              
H              28.653              -3.386              24.019              
H              30.137              -4.058              23.89               
N              31.446              -4.123              26.986              
C              32.819              -3.604              26.975              
C              33.3                -3.441              25.534              
O              33.037              -4.3                24.683              
C              33.744              -4.541              27.748              
H              31.19               -5.057              27.329              
H              32.827              -2.707              27.42               
H              34.6                -4.651              27.246              
H              33.932              -4.153              28.649              
H              33.302              -5.431              27.854              
N              33.981              -2.33               25.248              
C              34.668              -2.153              23.968              
C              35.926              -3.006              23.932              
O              36.497              -3.318              24.976              
C              35.105              -0.704              23.77               
S              33.8                0.508               23.904              
H              33.981              -1.614              26                  
H              34.055              -2.464              23.238              
H              35.808              -0.5                24.458              
H              35.52               -0.633              22.857              
N              36.367              -3.347              22.728              
C              37.584              -4.146              22.564              
C              38.788              -3.495              23.23               
O              39.659              -4.187              23.757              
C              37.865              -4.405              21.082              
C              37.059              -5.545              20.498              
C              37.172              -5.555              18.971              
C              36.439              -6.753              18.377              
N              36.809              -6.97               16.941              
H              35.794              -3.01               21.935              
H              37.433              -5.054              22.982              
H              37.65               -3.573              20.576              
H              38.835              -4.619              20.984              
H              37.407              -6.411              20.847              
H              36.101              -5.436              20.744              
H              36.763              -4.725              18.616              
H              38.129              -5.613              18.722              
H              36.675              -7.572              18.902              
H              35.452              -6.595              18.439              
H              37.177              -7.891              16.834              
H              35.995              -6.863              16.374              
H              37.497              -6.297              16.676              
N              38.832              -2.169              23.238              
C              39.945              -1.48               23.881              
C              39.807              -1.334              25.393              
O              40.655              -0.707              26.037              
C              40.169              -0.095              23.269              
C              39.018              0.869               23.533              
H              38.049              -1.693              22.773              
H              40.779              -2.041              23.714              
H              41                  0.293               23.66               
H              40.273              -0.199              22.282              
O              38.108              0.605               24.324              
N              39.062              2.012               22.86               
H              39.808              2.2                 22.224              
H              38.338              2.696               22.99               
N              38.729              -1.866              25.96               
C              38.566              -1.836              27.397              
C              37.7                -0.708              27.925              
O              37.338              -0.71               29.101              
H              38.049              -2.284              25.305              
H              38.172              -2.731              27.71               
H              39.491              -1.779              27.84               
N              37.375              0.266               27.078              
C              36.492              1.348               27.496              
C              35.092              0.783               27.681              
O              34.814              -0.309              27.205              
C              36.468              2.454               26.439              
C              37.799              3.166               26.277              
C              38.221              3.894               27.536              
H              37.788              0.189               26.137              
H              36.808              1.682               28.381              
H              36.22               2.051               25.558              
H              35.78               3.132               26.7                
H              38.499              2.49                26.049              
H              37.72               3.83                25.535              
O              39.153              3.479               28.227              
N              37.533              4.99                27.844              
H              37.75               5.524               28.682              
H              36.782              5.288               27.224              
N              34.222              1.512               28.374              
C              32.909              0.969               28.754              
C              31.758              1.513               27.928              
O              30.593              1.265               28.25               
C              32.586              1.24                30.235              
O              32.537              2.652               30.449              
C              33.657              0.644               31.125              
H              34.536              2.465               28.617              
H              32.943              -0.042              28.634              
H              31.669              0.852               30.447              
H              34.082              1.364               31.68               
H              33.253              -0.042              31.736              
H              34.364              0.205               30.564              
H              33.378              3.088               30.11               
N              32.074              2.259               26.876              
C              31.035              3.005               26.164              
C              30.579              2.345               24.877              
O              30.242              3.027               23.907              
C              31.479              4.452               25.88               
C              32.705              4.536               24.99               
H              33.068              2.267               26.616              
H              30.228              3.047               26.782              
H              30.725              4.926               25.432              
H              31.685              4.89                26.752              
O              33.712              3.872               25.226              
N              32.624              5.371               23.95               
H              31.788              5.899               23.802              
H              33.396              5.466               23.326              
N              30.569              1.017               24.852              
C              30.119              0.316               23.65               
C              28.75               -0.296              23.858              
O              28.346              -0.585              24.983              
C              31.131              -0.745              23.226              
S              32.55               -0.01               22.397              
H              30.888              0.55                25.706              
H              30.056              0.988               22.902              
H              31.448              -1.213              24.034              
H              30.687              -1.364              22.598              
N              28.021              -0.45               22.759              
C              26.646              -0.916              22.813              
C              26.375              -1.894              21.696              
O              26.775              -1.673              20.546              
C              25.692              0.276               22.716              
C              25.897              1.233               23.863              
C              26.874              2.219               23.792              
C              25.153              1.12                25.036              
C              27.106              3.066               24.839              
C              25.383              1.985               26.108              
C              26.369              2.955               25.986              
O              26.654              3.845               27.002              
H              28.513              -0.212              21.874              
H              26.507              -1.39               23.691              
H              25.874              0.753               21.872              
H              24.766              -0.063              22.752              
H              27.419              2.305               22.949              
H              24.453              0.421               25.112              
H              27.821              3.776               24.767              
H              24.851              1.906               26.941              
H              27.217              4.584               26.639              
N              25.674              -2.97               22.034              
C              25.391              -4.032              21.081              
C              23.913              -3.981              20.703              
O              23.046              -3.89               21.569              
C              25.713              -5.391              21.71               
C              25.337              -6.571              20.828              
C              25.868              -7.871              21.385              
H              25.351              -2.986              23.023              
H              25.923              -3.86               20.253              
H              26.695              -5.436              21.89               
H              25.211              -5.473              22.571              
H              24.344              -6.626              20.775              
H              25.723              -6.428              19.921              
O              27.023              -7.946              21.803              
N              25.023              -8.895              21.418              
H              25.313              -9.805              21.766              
H              24.068              -8.755              21.086              
N              23.621              -4.023              19.406              
C              22.231              -3.995              18.96               
C              21.452              -5.229              19.431              
O              21.964              -6.351              19.392              
C              22.161              -3.876              17.429              
O              22.697              -5.024              16.796              
H              24.429              -4.075              18.771              
H              21.788              -3.182              19.363              
H              21.207              -3.771              17.162              
H              22.684              -3.075              17.149              
H              21.952              -5.586              16.438              
N              20.206              -5.019              19.858              
C              19.362              -6.123              20.311              
C              18.938              -6.998              19.128              
O              18.838              -8.222              19.245              
C              18.125              -5.582              21.037              
C              18.419              -5.008              22.396              
C              19.097              -5.754              23.354              
C              18.026              -3.721              22.724              
C              19.371              -5.228              24.601              
C              18.289              -3.192              23.967              
C              18.964              -3.946              24.902              
O              19.231              -3.413              26.136              
H              19.898              -4.031              19.84               
H              19.897              -6.693              20.942              
H              17.723              -4.866              20.471              
H              17.477              -6.333              21.145              
H              19.39               -6.687              23.136              
H              17.543              -3.167              22.043              
H              19.864              -5.775              25.283              
H              17.991              -2.261              24.194              
H              19.93               -2.705              26.046              
N              18.71               -6.36               17.987              
C              18.348              -7.068              16.767              
C              19.543              -7.178              15.829              
O              20.475              -6.36               15.9                
C              17.213              -6.339              16.056              
O              16.078              -6.232              16.893              
H              18.811              -5.325              18.039              
H              18.065              -8.001              17.018              
H              17.522              -5.425              15.809              
H              16.965              -6.85               15.238              
H              16.293              -6.601              17.797              
N              19.536              -8.188              14.964              
C              20.577              -8.277              13.945              
C              20.327              -7.167              12.936              
O              19.204              -6.665              12.798              
C              20.622              -9.632              13.196              
O              19.392              -9.833              12.482              
C              20.885              -10.797             14.155              
H              18.773              -8.863              15.072              
H              21.459              -8.121              14.376              
H              21.383              -9.604              12.518              
H              21.061              -10.441             15.074              
H              20.085              -11.398             14.179              
H              21.681              -11.316             13.841              
H              19.581              -10.065             11.523              
N              21.393              -6.77               12.253              
C              21.319              -5.704              11.269              
C              21.996              -4.441              11.801              
C              21.253              -3.815              12.97               
S              21.91               -2.198              13.352              
C              20.597              -1.543              14.364              
H              22.271              -7.281              12.481              
H              20.355              -5.541              11.057              
H              22.927              -4.67               12.101              
H              22.053              -3.764              11.061              
H              20.263              -3.764              12.733              
H              21.325              -4.44               13.772              
H              19.872              -2.228              14.465              
H              20.953              -1.305              15.271              
H              20.215              -0.721              13.935              
H              21.8174             -6.03146            10.3685             
H              20.9893             -0.804262           24.1011             
