239
4.xyz
C              43.778              0.741               3.686               
O              44.485              0.038               4.417               
N              42.624              1.267               4.099               
C              42.099              0.894               5.41                
C              41.821              -0.6                5.351               
O              41.064              -1.056              4.491               
C              40.819              1.66                5.758               
C              40.356              1.408               7.199               
C              39.123              2.228               7.567               
C              38.682              1.913               8.993               
N              37.421              2.617               9.383               
H              42.17               1.914               3.454               
H              42.789              1.067               6.098               
H              40.995              2.629               5.656               
H              40.099              1.363               5.146               
H              40.14               0.434               7.302               
H              41.102              1.646               7.824               
H              39.349              3.189               7.511               
H              38.386              1.995               6.95                
H              38.541              0.919               9.077               
H              39.416              2.183               9.627               
H              37.119              2.28                10.273              
H              37.596              3.598               9.436               
H              36.719              2.436               8.697               
N              42.45               -1.372              6.247               
C              42.463              -2.84               6.168               
C              41.081              -3.499              6.329               
O              40.765              -4.443              5.597               
C              43.378              -3.246              7.329               
C              44.213              -2.029              7.609               
C              43.305              -0.87               7.339               
H              42.897              -3.145              5.297               
H              42.837              -3.499              8.135               
H              43.957              -4.023              7.07                
H              44.523              -2.033              8.563               
H              45.014              -2.012              7.005               
H              42.751              -0.64               8.137               
H              43.814              -0.063              7.041               
N              40.286              -3.018              7.281               
C              38.976              -3.596              7.589               
C              37.973              -2.471              7.83                
O              38.298              -1.476              8.479               
C              39.034              -4.478              8.862               
C              37.646              -5.001              9.228               
C              40                  -5.637              8.674               
H              40.675              -2.192              7.791               
H              38.671              -4.118              6.793               
H              39.335              -3.9                9.614               
H              37.735              -5.883              9.688               
H              37.197              -4.349              9.837               
H              37.104              -5.111              8.396               
H              40.549              -5.748              9.502               
H              39.482              -6.475              8.5                 
H              40.599              -5.445              7.897               
N              36.76               -2.617              7.302               
C              35.714              -1.624              7.534               
C              34.331              -2.195              7.274               
O              34.139              -2.942              6.324               
C              35.934              -0.396              6.651               
C              34.984              0.738               6.98                
H              36.628              -3.468              6.732               
H              35.754              -1.375              8.511               
H              36.869              -0.076              6.783               
H              35.795              -0.663              5.701               
O              35.16               1.432               7.988               
N              33.991              0.957               6.114               
H              33.909              0.376               5.303               
H              33.34               1.692               6.276               
N              33.362              -1.818              8.1                 
C              32.014              -2.368              7.978               
C              31.006              -1.271              7.65                
O              31.05               -0.191              8.237               
C              31.598              -3.066              9.289               
O              32.461              -4.185              9.527               
C              30.143              -3.537              9.213               
H              33.636              -1.123              8.814               
H              32.009              -3.037              7.226               
H              31.709              -2.408              10.06               
H              29.533              -2.784              9.465               
H              29.935              -3.834              8.28                
H              30.005              -4.302              9.844               
H              32.761              -4.586              8.655               
N              30.129              -1.53               6.677               
C              29.033              -0.625              6.366               
C              27.737              -1.23               6.869               
O              27.52               -2.437              6.738               
C              28.95               -0.377              4.852               
C              30.135              0.383               4.292               
C              30.176              1.774               4.363               
C              31.205              -0.292              3.707               
C              31.258              2.489               3.857               
C              32.304              0.425               3.195               
C              32.315              1.813               3.267               
H              30.299              -2.423              6.171               
H              29.187              0.213               6.89                
H              28.914              -1.255              4.403               
H              28.139              0.156               4.677               
H              29.42               2.27                4.784               
H              31.199              -1.283              3.648               
H              31.264              3.492               3.922               
H              33.071              -0.079              2.78                
H              33.088              2.328               2.893               
N              26.886              -0.396              7.459               
C              25.61               -0.867              8.005               
C              24.465              -0.369              7.127               
O              24.352              0.845               6.862               
C              25.393              -0.367              9.441               
C              24.075              -0.915              10.023              
C              26.569              -0.773              10.323              
H              27.194              0.591               7.499               
H              25.61               -1.867              7.977               
H              25.298              0.623               9.413               
H              23.314              -0.388              9.654               
H              23.981              -1.873              9.766               
H              24.099              -0.83               11.016              
H              27.087              0.043               10.575              
H              26.223              -1.221              11.146              
H              27.157              -1.403              9.817               
N              23.619              -1.309              6.703               
C              22.461              -1.029              5.859               
C              21.183              -1.094              6.684               
O              20.363              -2.009              6.514               
C              22.347              -2.061              4.74                
C              23.649              -2.393              4.071               
H              23.86               -2.277              7.032               
H              22.553              -0.1                5.491               
H              21.962              -2.914              5.116               
H              21.713              -1.714              4.036               
N              24.346              -1.487              3.301               
C              24.359              -3.543              4.037               
C              25.44               -2.061              2.833               
N              25.473              -3.312              3.263               
H              24.066              -0.543              3.126               
H              24.123              -4.401              4.486               
H              26.124              -1.628              2.254               
N              21.052              -0.16               7.615               
C              19.824              0.06                8.354               
C              19.716              1.564               8.378               
O              20.651              2.255               7.96                
C              19.937              -0.49               9.789               
C              20.197              -1.992              9.891               
C              19.048              -2.857              9.39                
O              17.912              -2.344              9.238               
O              19.29               -4.065              9.149               
H              21.921              0.411               7.772               
H              19.065              -0.325              7.874               
H              20.692              -0.027              10.225              
H              19.083              -0.304              10.247              
H              20.989              -2.204              9.342               
H              20.343              -2.216              10.841              
N              18.585              2.086               8.845               
C              18.39               3.521               8.891               
C              19.331              4.149               9.896               
O              19.774              3.493               10.838              
C              16.947              3.873               9.248               
O              16.655              3.564               10.606              
H              17.883              1.395               9.161               
H              18.608              3.897               7.983               
H              16.807              4.849               9.104               
H              16.333              3.351               8.661               
H              16.437              2.593               10.684              
N              19.65               5.421               9.696               
C              20.458              6.139               10.671              
C              19.778              6.163               12.034              
O              20.451              6.093               13.061              
C              20.754              7.563               10.199              
C              21.576              8.407               11.164              
C              22.985              7.837               11.369              
C              21.662              9.857               10.715              
H              19.29               5.838               8.825               
H              21.343              5.667               10.766              
H              21.261              7.502               9.347               
H              19.887              8.024               10.06               
H              21.108              8.444               12.053              
H              23.46               7.811               10.491              
H              23.486              8.42                12.006              
H              22.915              6.913               11.741              
H              20.742              10.247              10.664              
H              22.208              10.379              11.371              
H              22.093              9.904               9.813               
N              18.449              6.262               12.057              
C              17.75               6.252               13.339              
C              17.97               4.925               14.068              
O              18.198              4.914               15.295              
C              16.268              6.53                13.149              
H              17.991              6.341               11.147              
H              18.112              6.995               13.913              
H              15.772              6.293               13.985              
H              16.132              7.5                 12.947              
H              15.919              5.981               12.389              
N              17.91               3.812               13.336              
C              18.062              2.495               13.956              
C              19.484              2.307               14.505              
O              19.673              1.757               15.602              
C              17.692              1.371               12.978              
C              16.194              1.174               12.848              
O              15.432              1.855               13.566              
O              15.777              0.323               12.032              
H              17.752              3.957               12.327              
H              17.439              2.462               14.744              
H              18.063              1.608               12.087              
H              18.099              0.529               13.312              
N              20.48               2.767               13.752              
C              21.861              2.666               14.217              
C              22.142              3.607               15.399              
O              22.792              3.218               16.381              
C              22.842              2.84                13.051              
C              24.288              2.741               13.54               
C              22.561              1.77                12.015              
H              20.203              3.182               12.853              
H              22.019              1.721               14.535              
H              22.726              3.759               12.686              
H              24.621              3.653               13.772              
H              24.324              2.155               14.348              
H              24.855              2.35                12.817              
H              23.186              1.883               11.242              
H              22.695              0.867               12.424              
H              21.616              1.855               11.696              
N              21.616              4.828               15.348              
C              21.77               5.742               16.479              
C              21.122              5.163               17.726              
O              21.624              5.355               18.835              
C              21.169              7.103               16.168              
C              22.007              7.908               15.178              
C              21.313              9.167               14.716              
H              21.115              5.061               14.483              
H              22.753              5.845               16.66               
H              20.263              6.978               15.772              
H              21.1                7.631               17.012              
H              22.867              8.158               15.622              
H              22.197              7.332               14.383              
O              20.076              9.248               14.713              
N              22.102              10.16               14.306              
H              21.707              11.034              13.967              
H              23.111              10.029              14.338              
N              20.027              4.437               17.534              
H              19.746              4.314               16.546              
H              44.0886             0.96296             2.69277             
H              19.5142             4.03802             18.3167             
