253
3.xyz
C              1.656               -9.435              19.336              
C              2.198               -9.92               20.668              
O              2.604               -11.075             20.797              
C              0.302               -10.083             19.045              
C              -0.395              -9.534              17.803              
C              -1.765              -10.152             17.593              
H              1.562               -8.438              19.386              
H              0.436               -11.067             18.914              
H              -0.303              -9.934              19.83               
H              -0.502              -8.548              17.908              
H              0.171               -9.732              17.006              
O              -2.661              -10                 18.425              
N              -1.93               -10.863             16.485              
H              -2.816              -11.319             16.283              
H              -1.151              -10.947             15.833              
N              2.224               -9.024              21.652              
C              2.712               -9.345              22.989              
C              1.822               -8.728              24.064              
O              1.191               -7.69               23.848              
C              4.144               -8.835              23.202              
C              5.178               -9.491              22.323              
C              5.779               -10.682             22.701              
C              5.561               -8.904              21.129              
C              6.739               -11.276             21.899              
C              6.528               -9.484              20.327              
C              7.115               -10.674             20.705              
H              1.868               -8.08               21.386              
H              2.644               -10.344             23.095              
H              4.15                -7.864              23.008              
H              4.389               -9.011              24.145              
H              5.519               -11.119             23.558              
H              5.13                -8.045              20.84               
H              7.163               -12.144             22.186              
H              6.802               -9.027              19.462              
H              7.807               -11.107             20.129              
N              1.787               -9.372              25.224              
C              1.148               -8.81               26.401              
C              2.052               -7.744              27.021              
O              3.26                -7.944              27.204              
C              0.843               -9.882              27.437              
C              -0.105              -11.004             27.003              
C              -0.167              -12.075             28.079              
C              -1.511              -10.449             26.701              
H              2.253               -10.305             25.215              
H              0.289               -8.372              26.127              
H              1.705               -10.312             27.701              
H              0.431               -9.438              28.23               
H              0.233               -11.403             26.154              
H              -0.501              -11.674             28.933              
H              -0.787              -12.805             27.79               
H              0.747               -12.455             28.227              
H              -1.444              -9.778              25.966              
H              -2.104              -11.201             26.422              
H              -1.874              -10.018             27.524              
N              1.452               -6.606              27.344              
C              2.192               -5.48               27.911              
C              1.444               -4.99               29.147              
O              0.215               -4.856              29.118              
C              2.32                -4.326              26.88               
C              3.122               -3.156              27.457              
C              2.961               -4.836              25.599              
H              0.429               -6.583              27.163              
H              3.087               -5.808              28.201              
H              1.403               -3.986              26.695              
H              2.584               -2.318              27.38               
H              3.326               -3.338              28.417              
H              3.974               -3.057              26.946              
H              3.6                 -5.573              25.82               
H              2.249               -5.181              24.987              
H              3.452               -4.087              25.154              
N              2.175               -4.728              30.227              
C              1.563               -4.264              31.46               
C              0.893               -2.915              31.205              
O              1.433               -2.087              30.48               
C              2.614               -4.113              32.557              
C              3.319               -5.406              32.987              
C              4.491               -5.114              33.904              
C              2.339               -6.332              33.673              
H              3.194               -4.881              30.111              
H              0.859               -4.916              31.739              
H              3.316               -3.491              32.227              
H              2.168               -3.739              33.362              
H              3.645               -5.882              32.167              
H              4.167               -4.641              34.725              
H              4.933               -5.972              34.17               
H              5.154               -4.534              33.429              
H              1.593               -6.562              33.045              
H              2.806               -7.174              33.951              
H              1.959               -5.883              34.485              
N              -0.286              -2.711              31.789              
C              -0.935              -1.402              31.768              
C              0.048               -0.284              32.111              
O              0.027               0.783               31.486              
C              -2.112              -1.371              32.757              
C              -3.301              -2.18               32.323              
C              -3.428              -2.913              31.174              
C              -4.543              -2.32               33.025              
N              -4.673              -3.503              31.124              
C              -5.373              -3.155              32.248              
C              -5.031              -1.827              34.24               
C              -6.665              -3.506              32.647              
C              -6.319              -2.184              34.634              
C              -7.115              -3.012              33.837              
H              -0.695              -3.545              32.25               
H              -1.264              -1.238              30.83               
H              -1.807              -1.738              33.629              
H              -2.416              -0.431              32.862              
H              -2.725              -3.008              30.474              
H              -5.008              -4.088              30.388              
H              -4.478              -1.235              34.816              
H              -7.228              -4.101              32.064              
H              -6.67               -1.838              35.498              
H              -8.037              -3.243              34.157              
N              0.885               -0.523              33.121              
C              1.923               0.434               33.541              
C              2.757               0.945               32.377              
O              3.237               2.078               32.399              
C              2.904               -0.219              34.524              
C              2.293               -0.814              35.774              
C              3.372               -1.471              36.639              
C              2.799               -1.968              37.971              
N              3.864               -2.498              38.884              
H              0.745               -1.444              33.59               
H              1.468               1.221               33.989              
H              3.393               -0.948              34.031              
H              3.574               0.481               34.799              
H              1.856               -0.094              36.306              
H              1.624               -1.507              35.521              
H              3.746               -2.248              36.148              
H              4.08                -0.803              36.832              
H              2.329               -1.207              38.424              
H              2.135               -2.697              37.785              
H              4.426               -1.738              39.205              
H              3.432               -2.952              39.66               
H              4.429               -3.149              38.382              
N              2.967               0.089               31.381              
C              3.893               0.382               30.296              
C              3.184               0.852               29.04               
O              3.784               0.922               27.979              
C              4.747               -0.854              29.979              
C              5.746               -1.155              31.077              
O              5.993               -2.348              31.34               
O              6.268               -0.191              31.688              
H              2.42                -0.794              31.445              
H              4.485               1.144               30.607              
H              4.136               -1.628              29.878              
H              5.237               -0.678              29.137              
N              1.909               1.197               29.163              
C              1.144               1.591               27.986              
C              0.609               3.008               28.15               
O              0.105               3.362               29.215              
C              -0.035              0.641               27.72               
C              0.482               -0.795              27.508              
C              -0.847              1.142               26.514              
C              -0.597              -1.895              27.671              
H              1.527               1.163               30.116              
H              1.794               1.616               27.222              
H              -0.618              0.637               28.522              
H              0.862               -0.866              26.59               
H              1.204               -0.972              28.173              
H              -1.63               0.542               26.377              
H              -1.16               2.07                26.695              
H              -0.267              1.132               25.704              
H              -1.313              -1.733              27.002              
H              -0.17               -2.778              27.516              
H              -0.962              -1.841              28.593              
N              0.742               3.807               27.097              
C              0.125               5.13                27.059              
C              -0.465              5.435               25.679              
O              0.025               4.952               24.664              
C              1.145               6.187               27.449              
O              2.316               6.039               26.679              
H              1.31                3.418               26.321              
H              -0.631              5.143               27.725              
H              0.757               7.087               27.284              
H              1.371               6.078               28.411              
H              2.353               5.116               26.295              
N              -1.538              6.244               25.633              
C              -2.143              6.567               24.334              
C              -1.148              7.27                23.418              
O              -0.333              8.06                23.894              
C              -3.276              7.539               24.702              
C              -3.586              7.238               26.134              
C              -2.269              6.84                26.762              
H              -2.508              5.736               23.896              
H              -2.973              8.489               24.592              
H              -4.077              7.382               24.12               
H              -3.967              8.048               26.591              
H              -4.252              6.488               26.201              
H              -1.783              7.634               27.118              
H              -2.403              6.17                27.49               
N              -1.203              6.999               22.12               
C              -0.357              7.739               21.19               
C              -1.002              9.077               20.87               
O              -0.311              10.022              20.507              
C              -0.112              6.949               19.909              
H              -1.859              6.261               21.844              
H              0.532               7.904               21.623              
H              -0.111              5.971               20.116              
H              -0.836              7.15                19.251              
H              0.772               7.209               19.522              
N              -2.327              9.146               21.019              
C              -3.095              10.349              20.67               
C              -2.679              11.565              21.477              
O              -2.296              11.449              22.64               
C              -4.593              10.103              20.847              
H              -2.766              8.283               21.4                
H              -2.949              10.545              19.686              
H              -5.098              10.919              20.569              
H              -4.87               9.328               20.281              
H              -4.784              9.902               21.806              
N              -2.777              12.732              20.842              
C              -2.509              14.009              21.491              
C              -3.291              14.125              22.796              
O              -4.483              13.817              22.84               
C              -2.87               15.174              20.557              
C              -1.774              15.759              19.659              
C              -0.715              16.458              20.498              
C              -1.144              14.702              18.775              
H              -3.063              12.651              19.839              
H              -1.528              14.063              21.704              
H              -3.611              14.86               19.953              
H              -3.217              15.924              21.128              
H              -2.188              16.416              19.03               
H              -0.301              15.801              21.129              
H              -0.008              16.834              19.899              
H              -1.137              17.2                21.02               
H              -1.844              14.293              18.186              
H              -0.434              15.118              18.204              
H              -0.732              13.987              19.344              
N              -2.618              14.584              23.862              
C              -3.203              14.717              25.199              
C              -4.694              15.045              25.148              
O              -5.471              14.481              25.921              
C              -2.411              15.875              25.791              
C              -1.047              15.697              25.189              
C              -1.25               15.133              23.807              
H              -3.041              13.879              25.744              
H              -2.804              16.752              25.523              
H              -2.37               15.811              26.785              
H              -0.565              16.583              25.148              
H              -0.495              15.069              25.755              
H              -1.186              15.845              23.108              
H              -0.589              14.409              23.606              
N              -5.081              15.942              24.246              
C              -6.482              16.214              23.994              
C              -7.082              15.189              23.051              
O              -8.094              15.445              22.402              
O              -6.712              14.041              22.788              
H              -4.302              16.42               23.749              
H              -6.991              16.203              24.866              
H              -6.581              17.135              23.592              
H              2.34459             -9.66283            18.5673             
