362
3.xyz
C              14.318              3.602               -16.232             
O              13.907              2.683               -16.94              
N              13.956              3.752               -14.953             
C              13.017              2.841               -14.275             
C              13.285              1.355               -14.561             
O              12.38               0.605               -14.951             
C              11.557              3.223               -14.595             
C              10.553              2.546               -13.668             
H              14.394              4.569               -14.475             
H              13.144              2.975               -13.278             
H              11.465              4.208               -14.497             
H              11.362              2.947               -15.531             
O              10.918              1.988               -12.633             
N              9.269               2.61                -14.034             
H              9.021               3.081               -14.881             
H              8.567               2.191               -13.466             
N              14.526              0.92                -14.346             
C              14.921              -0.439              -14.732             
C              14.298              -1.519              -13.852             
O              14.2                -2.675              -14.277             
C              16.445              -0.582              -14.829             
C              17.087              0.25                -15.941             
C              18.587              0.38                -15.723             
C              16.783              -0.331              -17.308             
H              15.162              1.597               -13.901             
H              14.623              -0.596              -15.689             
H              16.834              -0.283              -13.971             
H              16.651              -1.531              -15.009             
H              16.672              1.161               -15.946             
H              19.005              -0.529              -15.72              
H              18.986              0.927               -16.46              
H              18.76               0.828               -14.846             
H              15.792              -0.347              -17.455             
H              17.214              0.231               -18.017             
H              17.14               -1.265              -17.365             
N              13.872              -1.161              -12.638             
C              13.137              -2.104              -11.794             
C              11.637              -2.083              -12.056             
O              10.901              -2.883              -11.481             
C              13.426              -1.875              -10.31              
S              15.12               -2.284              -9.905              
H              14.099              -0.196              -12.359             
H              13.478              -3.037              -11.995             
H              13.272              -0.921              -10.111             
H              12.824              -2.457              -9.787              
N              11.198              -1.182              -12.938             
H              11.95               -0.569              -13.334             
C              7.848               -4.912              3.773               
C              8.972               -4.643              2.762               
O              8.767               -3.873              1.818               
C              6.605               -5.486              3.072               
C              6.807               -6.884              2.508               
O              7.901               -7.203              2.012               
O              5.833               -7.667              2.532               
H              8.244               -5.438              4.509               
H              5.865               -5.515              3.74                
H              6.365               -4.871              2.325               
N              10.136              -5.274              2.939               
C              11.3                -4.986              2.079               
C              11.322              -5.714              0.729               
O              12.286              -5.567              -0.03               
C              12.645              -5.181              2.824               
C              12.917              -6.661              3.123               
C              12.681              -4.321              4.083               
C              14.339              -6.953              3.599               
H              10.153              -5.962              3.707               
H              11.25               -3.99               1.869               
H              13.373              -4.847              2.229               
H              12.276              -6.966              3.825               
H              12.75               -7.186              2.289               
H              13.582              -4.391              4.507               
H              12.499              -3.37               3.841               
H              11.985              -4.641              4.723               
H              14.51               -6.444              4.439               
H              14.429              -7.931              3.769               
H              14.982              -6.67               2.892               
N              10.276              -6.485              0.427               
C              10.244              -7.296              -0.787              
C              10.644              -6.526              -2.044              
O              11.518              -6.969              -2.779              
C              8.863               -7.962              -0.989              
O              8.569               -8.796              0.138               
C              8.856               -8.816              -2.24               
H              9.502               -6.457              1.118               
H              10.893              -8.07               -0.671              
H              8.154               -7.232              -1.041              
H              8.776               -8.233              -3.053              
H              9.708               -9.344              -2.301              
H              8.08                -9.452              -2.217              
H              8.266               -8.237              0.917               
N              9.994               -5.391              -2.296              
C              10.238              -4.658              -3.538              
C              11.68               -4.143              -3.611              
O              12.332              -4.209              -4.661              
C              9.236               -3.523              -3.692              
H              9.332               -5.088              -1.569              
H              10.082              -5.278              -4.317              
H              9.724               -2.665              -3.848              
H              8.636               -3.71               -4.47               
H              8.687               -3.446              -2.86               
N              12.188              -3.643              -2.488              
C              13.572              -3.18               -2.429              
C              14.552              -4.324              -2.658              
O              15.567              -4.149              -3.331              
C              13.875              -2.483              -1.108              
O              13.288              -1.2                -1.073              
H              11.537              -3.612              -1.686              
H              13.706              -2.505              -3.166              
H              13.506              -3.031              -0.363              
H              14.862              -2.392              -1.012              
H              12.916              -0.976              -1.974              
N              14.271              -5.494              -2.09               
C              15.141              -6.645              -2.312              
C              15.116              -7.094              -3.772              
O              16.167              -7.34               -4.355              
C              14.805              -7.817              -1.368              
C              15.569              -9.084              -1.763              
C              15.123              -7.431              0.058               
H              13.425              -5.513              -1.507              
H              16.086              -6.372              -2.089              
H              13.835              -8.022              -1.471              
H              16.453              -8.828              -2.151              
H              15.709              -9.65               -0.953              
H              15.039              -9.591              -2.44               
H              14.322              -7.596              0.637               
H              15.892              -7.98               0.391               
H              15.367              -6.46               0.096               
N              13.929              -7.197              -4.367              
C              13.841              -7.577              -5.778              
C              14.624              -6.635              -6.681              
O              15.328              -7.064              -7.593              
C              12.387              -7.645              -6.237              
C              11.676              -8.89               -5.75               
H              13.115              -6.995              -3.774              
H              14.264              -8.491              -5.864              
H              11.907              -6.846              -5.884              
H              12.371              -7.638              -7.234              
O              12.307              -9.904              -5.445              
N              10.351              -8.82               -5.674              
H              9.879               -7.978              -5.938              
H              9.825               -9.608              -5.354              
N              14.487              -5.339              -6.429              
C              15.211              -4.354              -7.206              
C              16.717              -4.415              -6.913              
O              17.53               -4.377              -7.838              
C              14.623              -2.965              -6.972              
S              15.329              -1.662              -7.972              
H              13.84               -5.107              -5.656              
H              15.082              -4.556              -8.184              
H              13.637              -3.015              -7.157              
H              14.757              -2.736              -6.003              
N              17.093              -4.531              -5.639              
C              18.508              -4.644              -5.274              
C              19.202              -5.817              -5.973              
O              20.37               -5.719              -6.361              
C              18.663              -4.754              -3.772              
H              16.322              -4.534              -4.952              
H              18.98               -3.789              -5.541              
H              19.493              -5.27               -3.554              
H              18.73               -3.839              -3.371              
H              17.87               -5.226              -3.384              
N              18.477              -6.925              -6.14               
C              19.033              -8.072              -6.847              
C              19.379              -7.724              -8.295              
O              20.396              -8.177              -8.813              
C              18.081              -9.268              -6.787              
C              18.053              -9.941              -5.422              
C              17.053              -11.086             -5.377              
C              17.057              -11.777             -4.02               
N              16.031              -12.849             -3.961              
H              17.529              -6.895              -5.74               
H              19.876              -8.368              -6.379              
H              17.164              -8.948              -6.997              
H              18.378              -9.937              -7.461              
H              18.965              -10.3               -5.217              
H              17.801              -9.264              -4.729              
H              16.142              -10.725             -5.545              
H              17.295              -11.754             -6.073              
H              17.962              -12.175             -3.863              
H              16.867              -11.097             -3.31               
H              15.383              -12.65              -3.226              
H              15.543              -12.892             -4.833              
H              16.476              -13.727             -3.784              
N              18.535              -6.928              -8.941              
C              18.828              -6.441              -10.286             
C              20.034              -5.505              -10.284             
O              20.917              -5.615              -11.127             
C              17.602              -5.73               -10.854             
C              16.401              -6.644              -11.067             
C              15.158              -5.851              -11.451             
C              13.952              -6.749              -11.707             
N              14.092              -7.504              -12.982             
H              17.672              -6.688              -8.421              
H              19.033              -7.229              -10.881             
H              17.335              -5.008              -10.219             
H              17.851              -5.331              -11.734             
H              16.61               -7.291              -11.8               
H              16.217              -7.144              -10.222             
H              14.933              -5.225              -10.707             
H              15.349              -5.334              -12.283             
H              13.864              -7.396              -10.947             
H              13.128              -6.18               -11.749             
H              13.742              -6.949              -13.736             
H              15.057              -7.713              -13.139             
H              13.571              -8.355              -12.922             
N              20.068              -4.586              -9.32               
C              21.134              -3.587              -9.246              
C              22.494              -4.262              -9.115              
O              23.433              -3.954              -9.852              
C              20.906              -2.617              -8.073              
C              19.596              -1.843              -8.265              
C              22.078              -1.678              -7.934              
C              19.18               -0.975              -7.091              
H              19.287              -4.64               -8.639              
H              21.133              -3.11               -10.128             
H              20.826              -3.154              -7.241              
H              19.689              -1.263              -9.079              
H              18.865              -2.508              -8.445              
H              21.944              -1.082              -7.141              
H              22.921              -2.202              -7.81               
H              22.162              -1.114              -8.757              
H              19.891              -0.296              -6.916              
H              18.322              -0.515              -7.31               
H              19.057              -1.55               -6.284              
N              22.6                -5.193              -8.175              
C              23.883              -5.823              -7.859              
C              24.336              -6.769              -8.975              
O              25.496              -7.162              -9.03               
C              23.817              -6.556              -6.496              
C              23.004              -7.848              -6.581              
C              25.202              -6.826              -5.938              
H              21.713              -5.432              -7.692              
H              24.576              -5.096              -7.771              
H              23.342              -5.956              -5.854              
H              22.031              -7.625              -6.606              
H              23.256              -8.343              -7.411              
H              23.198              -8.414              -5.781              
H              25.682              -5.958              -5.805              
H              25.12               -7.301              -5.061              
H              25.714              -7.397              -6.581              
N              23.408              -7.114              -9.866              
C              23.683              -7.984              -11.004             
C              24.042              -7.211              -12.271             
O              24.331              -7.82               -13.295             
C              22.471              -8.879              -11.285             
O              22.153              -9.687              -10.168             
H              22.462              -6.705              -9.678              
H              24.476              -8.57               -10.766             
H              21.689              -8.299              -11.501             
H              22.683              -9.467              -12.062             
H              21.505              -9.204              -9.579              
N              24.04               -5.882              -12.211             
C              24.155              -5.057              -13.422             
C              25.588              -4.816              -13.912             
O              25.771              -4.181              -14.948             
C              23.396              -3.728              -13.239             
C              23.077              -3.031              -14.564             
O              23.264              -1.799              -14.658             
O              22.635              -3.709              -15.509             
H              23.952              -5.485              -11.259             
H              23.669              -5.557              -14.167             
H              22.543              -3.925              -12.772             
H              23.963              -3.125              -12.693             
N              26.592              -5.313              -13.183             
C              27.992              -5.212              -13.624             
C              28.996              -4.831              -12.549             
O              30.102              -5.382              -12.501             
H              26.306              -5.767              -12.298             
H              28.268              -6.109              -14.04              
H              28.044              -4.531              -14.39              
N              28.603              -3.89               -11.685             
C              29.507              -3.29               -10.702             
C              29.337              -3.865              -9.304              
O              29.921              -3.371              -8.335              
C              29.303              -1.774              -10.652             
C              29.78               -1.085              -11.906             
H              27.598              -3.621              -11.772             
H              30.452              -3.506              -11                 
H              28.33               -1.593              -10.536             
H              29.813              -1.416              -9.874              
O              30.845              -1.396              -12.431             
N              28.99               -0.144              -12.399             
H              28.129              0.082               -11.938             
H              29.249              0.346               -13.233             
N              28.527              -4.907              -9.187              
C              28.291              -5.513              -7.882              
C              27.775              -4.487              -6.892              
O              26.97               -3.619              -7.249              
H              28.097              -5.238              -10.062             
H              27.618              -6.257              -7.976              
H              29.151              -5.909              -7.537              
N              28.235              -4.572              -5.645              
C              27.723              -3.679              -4.612              
C              28.33               -2.284              -4.668              
O              27.911              -1.417              -3.901              
C              27.838              -4.273              -3.21               
C              26.819              -5.376              -2.943              
S              26.652              -5.814              -1.198              
C              25.716              -4.407              -0.592              
H              28.951              -5.292              -5.485              
H              26.72               -3.588              -4.745              
H              28.758              -4.657              -3.089              
H              27.7                -3.545              -2.532              
H              25.912              -5.077              -3.331              
H              27.083              -6.202              -3.501              
H              26.14               -3.56               -0.915              
H              24.776              -4.46               -0.931              
H              25.71               -4.416              0.408               
N              29.279              -2.051              -5.581              
C              29.798              -0.697              -5.771              
C              28.72               0.304               -6.169              
O              28.931              1.505               -6.044              
C              30.954              -0.665              -6.764              
C              32.14               -1.464              -6.288              
O              32.474              -2.508              -6.857              
N              32.794              -0.972              -5.236              
H              29.594              -2.871              -6.11               
H              30.168              -0.394              -4.877              
H              30.637              -1.045              -7.629              
H              31.235              0.283               -6.889              
H              32.486              -0.124              -4.807              
H              33.593              -1.453              -4.876              
N              27.564              -0.185              -6.607              
C              26.407              0.667               -6.878              
C              25.982              1.463               -5.641              
O              25.422              2.556               -5.759              
C              25.253              -0.181              -7.368              
H              27.553              -1.219              -6.74               
H              26.649              1.32                -7.61               
H              25.584              -1.093              -7.614              
H              24.564              -0.264              -6.646              
H              24.837              0.246               -8.172              
N              26.223              0.901               -4.459              
C              25.88               1.569               -3.205              
C              27.085              2.334               -2.707              
O              28.061              1.747               -2.225              
C              25.387              0.57                -2.157              
C              24.017              0.067               -2.439              
C              22.852              0.641               -2.036              
C              23.65               -1.098              -3.197              
N              21.784              -0.086              -2.493              
C              22.244              -1.161              -3.206              
C              24.376              -2.094              -3.865              
C              21.545              -2.177              -3.857              
C              23.685              -3.095              -4.513              
C              22.285              -3.13               -4.51               
H              26.668              -0.036              -4.504              
H              25.155              2.229               -3.402              
H              25.998              -0.21               -2.147              
H              25.368              1.018               -1.273              
H              22.781              1.473               -1.485              
H              20.82               0.131               -2.333              
H              25.373              -2.079              -3.873              
H              20.543              -2.197              -3.839              
H              24.193              -3.808              -4.992              
H              21.821              -3.871              -4.999              
N              27.023              3.655               -2.836              
H              26.12               4.015               -3.204              
H              15.0097             4.30557             -16.6319            
H              10.2189             -1.0918             -13.2079            
H              27.8015             4.24757             -2.59106            
H              7.57431             -3.9621             4.16897             
