298
5.xyz
C              -10.928             11.875              -1.161              
C              -10.944             11.369              0.263               
O              -11.6               11.96               1.123               
C              -10.419             13.333              -1.216              
C              -9.009              13.423              -0.658              
C              -10.453             13.834              -2.64               
H              -10.345             11.278              -1.7                
H              -11.004             13.877              -0.625              
H              -8.762              14.383              -0.525              
H              -8.964              12.944              0.219               
H              -8.367              13.001              -1.299              
H              -11.404             13.919              -2.944              
H              -10.007             14.729              -2.692              
H              -9.971              13.188              -3.235              
N              -10.261             10.251              0.512               
C              -10.242             9.637               1.84                
C              -9.197              10.281              2.745               
O              -9.41               10.427              3.941               
C              -9.949              8.143               1.736               
C              -10.959             7.274               0.99                
C              -10.456             5.829               0.945               
C              -12.314             7.364               1.655               
H              -9.753              9.861               -0.305              
H              -11.15              9.762               2.263               
H              -9.066              8.036               1.272               
H              -9.875              7.78                2.667               
H              -11.061             7.614               0.061               
H              -10.347             5.488               1.878               
H              -11.119             5.264               0.456               
H              -9.577              5.8                 0.472               
H              -12.633             8.314               1.648               
H              -12.973             6.792               1.162               
H              -12.248             7.046               2.603               
N              -8.059              10.659              2.172               
C              -7.006              11.32               2.936               
C              -6.37               12.402              2.086               
O              -6.052              12.164              0.92                
C              -5.935              10.315              3.395               
C              -6.338              9.44                4.575               
C              -5.148              8.664               5.16                
C              -4.235              9.564               5.983               
N              -4.925              10.103              7.188               
H              -7.987              10.448              1.16                
H              -7.411              11.741              3.75                
H              -5.719              9.719               2.62                
H              -5.117              10.833              3.651               
H              -6.724              10.018              5.297               
H              -7.03               8.781               4.276               
H              -5.5                7.943               5.747               
H              -4.623              8.277               4.41                
H              -3.433              9.035               6.272               
H              -3.93               10.328              5.409               
H              -5.089              11.081              7.065               
H              -5.796              9.629               7.31                
H              -4.349              9.958               7.992               
N              -6.18               13.591              2.658               
C              -5.664              14.712              1.87                
C              -4.209              14.471              1.517               
O              -3.523              13.706              2.201               
C              -5.77               16.008              2.661               
O              -4.804              16                  3.691               
H              -6.417              13.648              3.655               
H              -6.19               14.758              1.017               
H              -5.595              16.77               2.056               
H              -6.672              16.068              3.062               
H              -4.196              16.787              3.587               
N              -3.746              15.119              0.449               
C              -2.347              15.065              0.058               
C              -1.455              15.404              1.247               
O              -0.445              14.759              1.467               
C              -2.08               16.027              -1.076              
H              -4.468              15.66               -0.073              
H              -2.129              14.134              -0.25               
H              -2.899              16.117              -1.645              
H              -1.836              16.926              -0.708              
H              -1.325              15.687              -1.639              
N              -1.855              16.414              2.011               
C              -1.072              16.883              3.152               
C              -1.021              15.837              4.261               
O              -0.004              15.691              4.93                
C              -1.625              18.22               3.69                
C              -1.478              19.409              2.724               
C              -2.466              19.374              1.571               
O              -3.555              18.795              1.749               
O              -2.149              19.916              0.484               
H              -2.764              16.838              1.731               
H              -0.133              17.099              2.852               
H              -2.586              18.098              3.861               
H              -1.126              18.442              4.507               
H              -1.641              20.233              3.235               
H              -0.572              19.379              2.344               
N              -2.108              15.094              4.445               
C              -2.143              14.074              5.489               
C              -1.386              12.799              5.088               
O              -0.989              12.01               5.942               
C              -3.585              13.746              5.878               
H              -2.894              15.294              3.809               
H              -1.712              14.448              6.325               
H              -4.172              14.522              5.655               
H              -3.889              12.94               5.373               
H              -3.629              13.563              6.859               
N              -1.191              12.598              3.786               
C              -0.458              11.431              3.294               
C              1.009               11.809              3.028               
O              1.93                11.182              3.558               
C              -1.098              10.862              2.001               
C              -0.397              9.595               1.569               
C              -2.579              10.577              2.229               
H              -1.594              13.323              3.166               
H              -0.467              10.729              4.008               
H              -0.963              11.538              1.282               
H              0.516               9.814               1.221               
H              -0.31               8.972               2.349               
H              -0.925              9.145               0.846               
H              -2.674              9.89                2.949               
H              -3.037              11.421              2.505               
H              -2.982              10.236              1.381               
N              1.226               12.821              2.193               
C              2.54                13.448              2.091               
C              3.607               12.798              1.223               
O              4.597               13.44               0.886               
H              0.404               13.116              1.638               
H              2.41                14.433              1.772               
H              2.924               13.564              3.054               
N              3.433               11.526              0.869               
C              4.441               10.806              0.086               
C              3.766               9.82                -0.862              
O              2.636               9.384               -0.612              
C              5.371               9.948               0.999               
C              6.128               10.808              1.996               
C              4.551               8.922               1.733               
H              2.545               11.1                1.187               
H              4.942               11.476              -0.467              
H              6.047               9.515               0.406               
H              6.865               10.272              2.41                
H              6.518               11.601              1.527               
H              5.503               11.121              2.712               
H              4.166               9.328               2.565               
H              3.804               8.603               1.146               
H              5.13                8.142               1.984               
N              4.46                9.463               -1.941              
C              4.032               8.345               -2.783              
C              4.15                7.055               -1.993              
O              5.188               6.773               -1.39               
C              4.881               8.232               -4.059              
C              4.544               6.977               -4.88               
C              5.198               6.95                -6.261              
C              6.685               6.689               -6.164              
N              7.275               6.459               -7.524              
H              5.305               10.029              -2.127              
H              3.076               8.483               -3.041              
H              4.706               9.025               -4.623              
H              5.834               8.183               -3.797              
H              4.845               6.166               -4.364              
H              3.545               6.926               -4.994              
H              4.777               6.225               -6.796              
H              5.053               7.831               -6.698              
H              7.133               7.478               -5.747              
H              6.844               5.878               -5.603              
H              6.638               5.918               -8.068              
H              7.433               7.34                -7.964              
H              8.139               5.969               -7.426              
N              3.077               6.276               -1.998              
C              3.008               5.05                -1.219              
C              3.587               3.894               -2.026              
O              3.263               3.727               -3.206              
C              1.541               4.76                -0.806              
C              1.073               5.779               0.237               
C              1.389               3.352               -0.259              
C              -0.436              5.803               0.433               
H              2.297               6.615               -2.602              
H              3.612               5.179               -0.432              
H              0.974               4.861               -1.614              
H              1.507               5.563               1.108               
H              1.369               6.686               -0.056              
H              0.43                3.179               -0.039              
H              1.696               2.691               -0.943              
H              1.941               3.252               0.568               
H              -0.741              4.902               0.735               
H              -0.665              6.486               1.123               
H              -0.874              6.036               -0.432              
N              4.465               3.121               -1.392              
C              5.078               1.965               -2.025              
C              5.934               2.299               -3.229              
O              6.385               3.436               -3.411              
H              4.671               3.415               -0.413              
H              5.648               1.47                -1.336              
H              4.345               1.31                -2.306              
N              6.149               1.294               -4.066              
C              6.911               1.475               -5.292              
C              6.193               0.894               -6.503              
O              6.674               -0.046              -7.138              
C              8.312               0.887               -5.142              
C              9.122               1.604               -4.079              
H              5.735               0.387               -3.776              
H              6.994               2.47                -5.449              
H              8.227               -0.07               -4.885              
H              8.785               0.972               -6.013              
O              9.793               2.596               -4.357              
N              9.034               1.121               -2.846              
H              8.46                0.321               -2.661              
H              9.54                1.553               -2.1                
N              5.028               1.471               -6.836              
C              4.245               0.983               -7.972              
C              5.014               1.111               -9.291              
O              5.796               2.043               -9.451              
C              3.025               1.91                -7.971              
C              3.516               3.176               -7.337              
C              4.471               2.723               -6.275              
H              3.955               0.027               -7.824              
H              2.708               2.079               -8.907              
H              2.277               1.51                -7.439              
H              3.977               3.751               -8.017              
H              2.75                3.687               -6.941              
H              5.2                 3.389               -6.124              
H              4.004               2.537               -5.41               
N              4.802               0.182               -10.219             
C              5.441               0.266               -11.531             
C              4.407               0.54                -12.6               
O              3.258               0.109               -12.476             
C              6.2                 -1.031              -11.898             
C              7.305               -1.305              -10.881             
C              5.249               -2.2                -11.978             
H              4.165               -0.582              -9.939              
H              6.087               1.035               -11.512             
H              6.642               -0.883              -12.775             
H              6.896               -1.48               -9.986              
H              7.832               -2.103              -11.17              
H              7.907               -0.51               -10.823             
H              4.811               -2.216              -12.879             
H              5.754               -3.054              -11.839             
H              4.546               -2.111              -11.269             
N              4.805               1.252               -13.66              
C              3.85                1.601               -14.707             
C              3.187               0.375               -15.296             
O              3.855               -0.599              -15.637             
C              4.721               2.289               -15.755             
C              5.843               2.854               -14.971             
C              6.129               1.853               -13.908             
H              3.158               2.252               -14.355             
H              5.048               1.626               -16.432             
H              4.206               3.009               -16.225             
H              6.65                2.999               -15.559             
H              5.584               3.744               -14.572             
H              6.774               1.154               -14.216             
H              6.477               2.282               -13.073             
N              1.865               0.42                -15.373             
C              1.119               -0.617              -16.043             
C              1.255               -0.356              -17.541             
O              1.127               0.77                -17.994             
C              -0.349              -0.564              -15.634             
C              -1.126              -1.749              -16.125             
C              -1.168              -2.919              -15.389             
C              -1.801              -1.707              -17.338             
C              -1.87               -4.014              -15.839             
C              -2.506              -2.797              -17.795             
C              -2.53               -3.946              -17.043             
O              -3.222              -5.04               -17.49              
H              1.43                1.247               -14.919             
H              1.536               -1.496              -15.846             
H              -0.396              -0.543              -14.642             
H              -0.75               0.259               -16.02              
H              -0.679              -2.971              -14.514             
H              -1.773              -0.87               -17.884             
H              -1.901              -4.855              -15.292             
H              -2.996              -2.753              -18.667             
H              -2.974              -5.836              -16.939             
N              1.53                -1.39               -18.315             
C              1.6                 -1.188              -19.753             
C              0.408               -1.818              -20.46              
O              0.331               -3.045              -20.555             
C              2.905               -1.754              -20.314             
C              4.121               -0.93               -19.922             
H              1.679               -2.283              -17.845             
H              1.549               -0.195              -19.919             
H              3.024               -2.679              -19.964             
H              2.84                -1.77               -21.308             
O              4.153               0.294               -20.096             
N              5.133               -1.603              -19.387             
H              5.072               -2.594              -19.268             
H              5.962               -1.118              -19.102             
N              -0.526              -0.981              -20.92              
C              -1.653              -1.454              -21.736             
C              -2.383              -2.658              -21.139             
O              -3.594              -2.846              -21.34              
C              -1.183              -1.793              -23.156             
C              -0.767              -0.586              -23.97              
C              -1.81               0.516               -23.935             
O              -2.865              0.369               -24.59              
O              -1.581              1.527               -23.238             
O              -1.953              -3.568              -20.424             
H              -0.39               0.012               -20.657             
H              -2.314              -0.692              -21.865             
H              -0.402              -2.387              -23.075             
H              -1.933              -2.227              -23.621             
H              0.06                -0.222              -23.587             
H              -0.66               -0.861              -24.906             
H              -11.9187            11.7935             -1.52931            
