329
0.xyz
N              -1.593              4.619               8.667               
C              -0.831              3.81                9.602               
C              0.238               2.963               8.937               
O              0.499               3.109               7.744               
H              -1.817              4.083               7.849               
H              -0.393              4.418               10.293              
H              -1.467              3.202               10.115              
H              -2.446              4.929               9.094               
H              -1.06               5.423               8.39                
N              0.856               2.073               9.713               
C              1.909               1.189               9.204               
C              1.412               0.343               8.029               
O              0.203               0.229               7.82                
C              2.444               0.287               10.324              
O              2.989               1.056               11.389              
H              0.531               2.059               10.701              
H              2.665               1.766               8.87                
H              1.695               -0.266              10.675              
H              3.158               -0.298              9.95                
H              2.809               2.024               11.224              
N              2.345               -0.225              7.263               
C              2.008               -1.055              6.104               
C              1.227               -0.215              5.083               
O              0.114               -0.563              4.709               
C              1.208               -2.286              6.579               
C              0.763               -3.203              5.483               
H              3.324               -0.029              7.557               
H              2.856               -1.36               5.672               
H              1.78                -2.812              7.223               
H              0.392               -1.965              7.077               
N              1.563               -3.532              4.412               
C              -0.403              -3.873              5.304               
C              0.909               -4.362              3.614               
N              -0.284              -4.583              4.134               
H              2.493               -3.197              4.261               
H              -1.195              -3.853              5.906               
H              1.258               -4.751              2.767               
N              1.811               0.902               4.647               
C              1.06                1.916               3.88                
C              0.42                1.423               2.589               
O              -0.659              1.869               2.227               
C              1.908               3.162               3.591               
C              2.12                4.039               4.811               
S              2.759               5.659               4.375               
C              4.457               5.242               4.014               
H              2.812               0.998               4.885               
H              0.315               2.267               4.488               
H              2.806               2.87                3.245               
H              1.451               3.706               2.879               
H              1.23                4.12                5.311               
H              2.756               3.557               5.453               
H              4.854               5.934               3.407               
H              4.986               5.208               4.865               
H              4.498               4.347               3.565               
N              1.08                0.511               1.887               
C              0.53                0.024               0.627               
C              -0.756              -0.765              0.887               
O              -1.578              -0.929              -0.004              
C              1.547               -0.809              -0.178              
C              1.803               -2.142              0.502               
C              1.059               -1.011              -1.593              
H              1.969               0.194               2.29                
H              0.295               0.815               0.059               
H              2.409               -0.311              -0.181              
H              1.294               -2.863              0.031               
H              2.781               -2.353              0.471               
H              1.505               -2.095              1.456               
H              1.065               -1.988              -1.814              
H              0.126               -0.657              -1.68               
H              1.66                -0.523              -2.228              
N              -0.944              -1.207              2.129               
C              -2.163              -1.899              2.516               
C              -3.382              -0.983              2.503               
O              -4.512              -1.45               2.644               
H              -0.158              -1.017              2.781               
H              -2.326              -2.675              1.885               
H              -2.05               -2.287              3.446               
N              -3.152              0.318               2.342               
C              -4.219              1.307               2.246               
C              -4.812              1.386               0.848               
O              -5.883              1.965               0.649               
C              -3.676              2.685               2.624               
C              -3.147              2.803               4.035               
C              -4.208              2.52                5.064               
H              -2.136              0.57                2.29                
H              -4.958              1.029               2.88                
H              -2.931              2.92                1.988               
H              -4.414              3.362               2.507               
H              -2.4                2.149               4.155               
H              -2.803              3.732               4.173               
O              -5.036              3.375               5.368               
N              -4.196              1.31                5.606               
H              -4.875              1.046               6.322               
H              -3.495              0.638               5.297               
N              -4.092              0.844               -0.129              
C              -4.495              0.938               -1.534              
C              -4.993              -0.393              -2.102              
O              -4.591              -1.467              -1.639              
C              -3.333              1.441               -2.392              
C              -2.699              2.75                -1.906              
C              -1.572              3.182               -2.841              
C              -3.745              3.85                -1.779              
H              -3.23               0.354               0.184               
H              -5.247              1.614               -1.606              
H              -2.625              0.75                -2.385              
H              -3.672              1.598               -3.307              
H              -2.332              2.611               -0.987              
H              -1.939              3.321               -3.76               
H              -1.173              4.035               -2.507              
H              -0.87               2.471               -2.865              
H              -4.446              3.57                -1.122              
H              -3.307              4.692               -1.461              
H              -4.17               4.011               -2.67               
N              -5.871              -0.304              -3.099              
C              -6.462              -1.484              -3.73               
C              -5.49               -2.143              -4.706              
O              -5.665              -2.067              -5.925              
C              -7.758              -1.114              -4.445              
O              -8.78               -0.808              -3.506              
H              -6.099              0.671               -3.389              
H              -6.673              -2.152              -3.005              
H              -7.596              -0.317              -5.016              
H              -8.052              -1.885              -5                  
H              -8.403              -0.844              -2.582              
N              -4.476              -2.799              -4.154              
C              -3.449              -3.448              -4.958              
C              -4.109              -4.423              -5.9                
O              -4.863              -5.289              -5.466              
C              -2.467              -4.199              -4.066              
C              -1.482              -3.283              -3.355              
C              -0.584              -4.07               -2.433              
N              -1.298              -4.565              -1.26               
C              -0.741              -5.289              -0.294              
N              0.542               -5.62               -0.363              
N              -1.467              -5.682              0.746               
H              -4.479              -2.809              -3.113              
H              -2.968              -2.751              -5.492              
H              -2.983              -4.691              -3.375              
H              -1.948              -4.829              -4.63               
H              -0.916              -2.821              -4.03               
H              -1.985              -2.617              -2.813              
H              -0.213              -4.845              -2.941              
H              0.16                -3.474              -2.136              
H              -2.277              -4.344              -1.177              
H              1.112               -5.318              -1.122              
H              0.949               -6.185              0.365               
H              -2.431              -5.412              0.806               
H              -1.058              -6.24               1.463               
N              -3.849              -4.256              -7.189              
C              -4.414              -5.127              -8.203              
C              -5.613              -4.555              -8.93               
O              -6.064              -5.119              -9.932              
H              -3.215              -3.459              -7.405              
H              -3.688              -5.359              -8.887              
H              -4.679              -6.017              -7.77               
N              -6.146              -3.442              -8.434              
C              -7.322              -2.843              -9.053              
C              -7.026              -2.32               -10.45              
O              -7.88               -2.373              -11.329             
C              -7.895              -1.724              -8.184              
H              -5.671              -3.056              -7.605              
H              -8.047              -3.546              -9.119              
H              -8.789              -1.455              -8.538              
H              -7.991              -2.05               -7.245              
H              -7.277              -0.94               -8.205              
N              -5.827              -1.802              -10.664             
C              -5.521              -1.269              -11.986             
C              -5.542              -2.39               -13.041             
O              -6.175              -2.257              -14.093             
C              -4.218              -0.433              -11.968             
C              -4.519              0.933               -11.322             
C              -3.639              -0.293              -13.373             
C              -3.303              1.811               -11.073             
H              -5.181              -1.808              -9.877              
H              -6.27               -0.647              -12.224             
H              -3.564              -0.901              -11.4               
H              -5.158              1.426               -11.917             
H              -4.978              0.766               -10.445             
H              -2.787              0.224               -13.33              
H              -3.461              -1.2                -13.75              
H              -4.292              0.188               -13.954             
H              -2.85               1.997               -11.942             
H              -3.598              2.668               -10.655             
H              -2.675              1.335               -10.46              
N              -4.909              -3.511              -12.729             
C              -4.937              -4.666              -13.633             
C              -6.359              -5.166              -13.844             
O              -6.748              -5.494              -14.96              
C              -4.06               -5.774              -13.112             
H              -4.41               -3.505              -11.826             
H              -4.557              -4.385              -14.523             
H              -3.414              -6.062              -13.822             
H              -3.545              -5.456              -12.313             
H              -4.623              -6.559              -12.846             
N              -7.136              -5.224              -12.769             
C              -8.527              -5.658              -12.862             
C              -9.325              -4.774              -13.811             
O              -10.123             -5.264              -14.61              
C              -9.178              -5.681              -11.483             
H              -6.682              -4.942              -11.882             
H              -8.548              -6.605              -13.21              
H              -9.679              -6.538              -11.366             
H              -8.471              -5.609              -10.78              
H              -9.81               -4.912              -11.401             
N              -9.115              -3.464              -13.718             
C              -9.799              -2.525              -14.594             
C              -9.367              -2.748              -16.036             
O              -10.185             -2.743              -16.956             
C              -9.495              -1.056              -14.214             
C              -10.156             -0.688              -12.878             
C              -9.992              -0.114              -15.295             
C              -9.843              0.718               -12.404             
H              -8.439              -3.181              -12.986             
H              -10.774             -2.753              -14.548             
H              -8.51               -0.967              -14.105             
H              -11.144             -0.784              -12.98              
H              -9.841              -1.337              -12.187             
H              -9.757              0.827               -15.055             
H              -9.565              -0.349              -16.167             
H              -10.984             -0.195              -15.381             
H              -10.163             1.374               -13.085             
H              -10.305             0.883               -11.534             
H              -8.856              0.813               -12.284             
N              -8.071              -2.957              -16.216             
C              -7.505              -3.014              -17.558             
C              -7.56               -4.405              -18.195             
O              -7.789              -4.513              -19.4               
C              -6.079              -2.457              -17.571             
C              -5.969              -1.026              -17.044             
S              -6.899              0.197               -17.993             
C              -5.764              0.533               -19.34              
H              -7.516              -3.072              -15.353             
H              -8.037              -2.382              -18.152             
H              -5.491              -3.047              -17.005             
H              -5.729              -2.473              -18.515             
H              -6.269              -1.026              -16.055             
H              -4.967              -0.775              -17.007             
H              -5.491              -0.328              -19.77              
H              -6.213              1.116               -20.019             
H              -4.953              1                   -18.986             
N              -7.358              -5.454              -17.398             
C              -7.387              -6.839              -17.907             
C              -8.794              -7.449              -17.907             
O              -9.15               -8.192              -18.819             
C              -6.444              -7.754              -17.1               
C              -4.964              -7.424              -17.212             
C              -4.112              -8.125              -16.158             
O              -2.92               -7.856              -16.032             
N              -4.725              -9.034              -15.399             
H              -7.181              -5.221              -16.403             
H              -7.06               -6.819              -18.865             
H              -6.705              -7.7                -16.13              
H              -6.579              -8.702              -17.413             
H              -4.638              -7.704              -18.116             
H              -4.845              -6.436              -17.107             
H              -4.218              -9.546              -14.691             
H              -5.72               -9.201              -15.548             
N              -9.583              -7.149              -16.876             
C              -10.911             -7.741              -16.724             
C              -12.041             -6.794              -17.11              
O              -13.155             -7.233              -17.394             
C              -11.142             -8.2                -15.285             
C              -10.151             -9.208              -14.766             
C              -10.549             -9.658              -13.373             
C              -11.972             -10.202             -13.364             
N              -12.12              -11.379             -14.268             
H              -9.179              -6.47               -16.202             
H              -10.966             -8.568              -17.313             
H              -11.112             -7.388              -14.694             
H              -12.063             -8.6                -15.233             
H              -10.138             -10.002             -15.368             
H              -9.246              -8.795              -14.724             
H              -9.934              -10.379             -13.077             
H              -10.505             -8.883              -12.756             
H              -12.209             -10.474             -12.429             
H              -12.598             -9.478              -13.662             
H              -12.166             -11.064             -15.215             
H              -11.334             -11.984             -14.153             
H              -12.959             -11.87              -14.036             
N              -11.76              -5.497              -17.114             
C              -12.791             -4.516              -17.388             
C              -13.828             -4.52               -16.283             
O              -15.007             -4.29               -16.525             
H              -10.774             -5.26               -16.911             
H              -12.378             -3.601              -17.455             
H              -13.236             -4.729              -18.265             
N              -13.378             -4.798              -15.063             
C              -14.252             -4.809              -13.895             
C              -14.708             -3.382              -13.61              
O              -13.872             -2.491              -13.478             
C              -13.479             -5.364              -12.696             
C              -14.383             -5.773              -11.555             
O              -15.512             -5.249              -11.465             
O              -13.961             -6.626              -10.747             
H              -12.358             -5.005              -15.014             
H              -15.066             -5.334              -14.137             
H              -12.969             -6.16               -13.003             
H              -12.859             -4.656              -12.378             
N              -16.018             -3.155              -13.521             
C              -16.534             -1.793              -13.343             
C              -17.343             -1.612              -12.075             
O              -17.842             -0.517              -11.796             
C              -17.447             -1.376              -14.493             
O              -17.889             -0.029              -14.275             
C              -18.655             -2.27               -14.519             
H              -16.617             -3.99               -13.586             
H              -15.739             -1.158              -13.312             
H              -16.919             -1.397              -15.365             
H              -18.38              -3.225              -14.675             
H              -19.148             -2.217              -13.644             
H              -19.28              -1.992              -15.256             
H              -17.442             0.357               -13.462             
N              -17.493             -2.685              -11.315             
C              -18.257             -2.624              -10.083             
C              -17.376             -2.383              -8.869              
O              -17.868             -2.005              -7.805              
C              -19.055             -3.904              -9.887              
C              -20.163             -4.035              -10.881             
H              -17.032             -3.543              -11.666             
H              -18.882             -1.831              -10.156             
H              -18.434             -4.678              -9.987              
H              -19.441             -3.894              -8.967              
O              -21.2               -3.38               -10.763             
N              -19.95              -4.868              -11.888             
H              -19.09              -5.374              -11.954             
H              -20.653             -4.996              -12.592             
N              -16.077             -2.607              -9.025              
H              -15.791             -2.933              -9.958              
H              -15.4386            -2.45643            -8.25549            
