214
5.xyz
C              22.592              41.361              76.15               
O              23.386              40.781              75.392              
N              21.462              40.795              76.564              
C              21.161              39.404              76.234              
C              20.709              39.206              74.785              
O              21.102              38.238              74.14               
C              20.103              38.819              77.167              
C              19.78               37.382              76.815              
C              20.627              36.351              77.201              
C              18.651              37.058              76.074              
C              20.349              35.038              76.876              
C              18.372              35.743              75.734              
C              19.227              34.738              76.142              
O              18.97               33.421              75.822              
H              20.84               41.402              77.118              
H              22.005              38.856              76.374              
H              20.451              38.842              78.091              
H              19.276              39.353              77.078              
H              21.456              36.564              77.725              
H              18.029              37.783              75.782              
H              20.967              34.304              77.178              
H              17.557              35.525              75.197              
H              19.645              32.839              76.271              
N              19.874              40.111              74.287              
C              19.206              39.909              72.999              
C              19.973              40.503              71.817              
O              21.015              41.14               71.996              
C              17.792              40.466              73.071              
C              16.932              39.717              74.067              
H              19.738              40.954              74.874              
H              19.157              38.908              72.845              
H              17.84               41.421              73.349              
H              17.374              40.39               72.17               
O              16.518              38.589              73.806              
N              16.652              40.343              75.214              
H              17.009              41.267              75.366              
H              16.096              39.896              75.906              
N              19.459              40.279              70.61               
C              20.112              40.766              69.397              
C              19.483              42.089              68.98               
O              18.252              42.241              69.068              
C              19.974              39.752              68.252              
C              20.047              38.291              68.686              
C              20.626              37.398              67.595              
C              19.741              37.329              66.362              
N              20.246              36.296              65.415              
H              18.573              39.74               70.606              
H              21.083              40.916              69.588              
H              19.092              39.903              67.808              
H              20.71               39.922              67.597              
H              20.626              38.223              69.5                
H              19.125              37.971              68.91               
H              21.519              37.759              67.326              
H              20.735              36.474              67.961              
H              18.812              37.094              66.64               
H              19.742              38.219              65.909              
H              20.211              35.399              65.854              
H              19.674              36.291              64.595              
H              21.189              36.51               65.164              
N              20.312              43.047              68.517              
C              19.742              44.306              68.045              
C              18.592              44.048              67.071              
O              18.707              43.2                66.178              
C              20.919              44.982              67.318              
C              22.141              44.357              67.906              
C              21.75               42.939              68.191              
H              19.433              44.873              68.816              
H              20.865              44.81               66.331              
H              20.907              45.972              67.477              
H              22.904              44.397              67.255              
H              22.408              44.834              68.748              
H              21.882              42.351              67.394              
H              22.256              42.564              68.969              
N              17.478              44.737              67.268              
C              16.345              44.623              66.352              
C              15.403              43.449              66.575              
O              14.46               43.279              65.809              
H              17.478              45.347              68.104              
H              15.8                45.498              66.39               
H              16.704              44.582              65.386              
N              15.657              42.625              67.599              
C              14.663              41.642              68.045              
C              13.454              42.416              68.537              
O              13.597              43.56               68.953              
C              15.2                40.773              69.183              
C              16.216              39.742              68.72               
O              16.366              39.51               67.495              
O              16.869              39.156              69.613              
H              16.585              42.739              68.033              
H              14.381              41.128              67.243              
H              15.635              41.371              69.849              
H              14.431              40.298              69.598              
N              12.277              41.792              68.486              
C              11.028              42.417              68.939              
C              11.132              42.923              70.387              
O              10.713              44.038              70.711              
C              9.864               41.414              68.837              
C              9.289               41.305              67.435              
O              9.333               42.31               66.682              
O              8.732               40.226              67.104              
H              12.317              40.824              68.098              
H              10.872              43.226              68.358              
H              10.207              40.523              69.113              
H              9.148               41.717              69.456              
N              11.678              42.091              71.259              
C              11.806              42.433              72.677              
C              12.644              43.711              72.895              
O              12.366              44.5                73.797              
C              12.384              41.242              73.473              
C              12.288              41.482              74.982              
C              13.832              40.945              73.085              
C              10.869              41.381              75.515              
H              12.004              41.188              70.861              
H              10.878              42.647              73.003              
H              11.841              40.436              73.253              
H              12.856              40.809              75.447              
H              12.637              42.395              75.177              
H              14.143              40.13               73.569              
H              13.885              40.79               72.101              
H              14.407              41.722              73.333              
H              10.513              40.467              75.329              
H              10.875              41.547              76.499              
H              10.299              42.063              75.062              
N              13.67               43.896              72.06               
C              14.525              45.094              72.085              
C              13.733              46.33               71.607              
O              13.829              47.398              72.206              
C              15.793              44.903              71.206              
C              16.604              46.189              71.125              
C              16.637              43.749              71.741              
H              13.817              43.113              71.381              
H              14.804              45.259              73.032              
H              15.485              44.69               70.283              
H              16.821              46.387              70.169              
H              16.072              46.944              71.509              
H              17.452              46.082              71.644              
H              16.504              42.948              71.159              
H              17.6                44.016              71.734              
H              16.351              43.539              72.675              
N              12.957              46.176              70.531              
C              12.084              47.252              70.075              
C              11.116              47.661              71.185              
O              10.879              48.839              71.412              
C              11.291              46.826              68.837              
C              12.065              46.535              67.555              
C              11.098              46.135              66.45               
C              12.879              47.743              67.134              
H              13.03               45.256              70.067              
H              12.649              48.048              69.84               
H              10.783              45.992              69.074              
H              10.634              47.557              68.63               
H              12.704              45.789              67.722              
H              10.452              46.881              66.284              
H              11.609              45.945              65.611              
H              10.595              45.315              66.726              
H              13.531              47.979              67.857              
H              13.38               47.535              66.292              
H              12.269              48.521              66.972              
N              10.588              46.666              71.887              
C              9.664               46.88               72.996              
C              10.323              47.632              74.147              
O              9.808               48.661              74.585              
C              9.1                 45.542              73.459              
C              8.179               44.924              72.412              
S              7.901               43.155              72.636              
C              6.297               43.173              73.407              
H              10.891              45.712              71.577              
H              8.894               47.44               72.66               
H              9.852               44.908              73.631              
H              8.576               45.677              74.299              
H              7.286               45.438              72.426              
H              8.576               45.115              71.48               
H              6.293               43.821              74.172              
H              5.601               43.45               72.74               
H              6.074               42.258              73.752              
N              11.478              47.145              74.591              
C              12.276              47.82               75.621              
C              12.618              49.242              75.215              
O              12.588              50.141              76.061              
C              13.557              47.047              75.911              
H              11.769              46.247              74.148              
H              11.739              47.845              76.475              
H              13.953              46.724              75.052              
H              14.21               47.645              76.374              
H              13.349              46.265              76.497              
N              12.944              49.449              73.935              
C              13.268              50.785              73.434              
C              12.074              51.734              73.536              
O              12.241              52.887              73.926              
C              13.793              50.733              71.989              
C              15.164              50.059              71.884              
C              15.783              50.139              70.501              
O              15.059              50.401              69.523              
O              17.022              49.961              70.397              
H              12.947              48.599              73.344              
H              14.042              51.164              73.96               
H              13.163              50.205              71.462              
H              13.89               51.651              71.673              
H              15.774              50.512              72.512              
H              15.053              49.105              72.107              
N              10.876              51.254              73.182              
C              9.663               52.066              73.306              
C              9.359               52.379              74.781              
O              9.074               53.523              75.133              
C              8.482               51.378              72.648              
H              10.883              50.285              72.823              
H              9.803               52.935              72.821              
H              8.534               51.496              71.656              
H              8.497               50.402              72.866              
H              7.629               51.779              72.984              
N              9.419               51.374              75.643              
H              9.608               50.447              75.235              
H              22.7993             42.3507             76.506              
H              9.28369             51.5343             76.6387             
