261
6.xyz
C              -11.909             32.414              33.093              
C              -10.731             32.663              32.188              
O              -10.542             31.952              31.243              
C              -12.98              33.457              32.848              
C              -14.314             32.999              33.406              
C              -15.33              34.095              33.376              
C              -15.739             34.423              31.942              
N              -16.903             35.371              32.08               
H              -12.321             31.515              32.858              
H              -12.721             34.292              33.305              
H              -13.077             33.589              31.875              
H              -14.643             32.224              32.859              
H              -14.18              32.693              34.353              
H              -16.145             33.81               33.871              
H              -14.948             34.919              33.783              
H              -15.006             34.878              31.492              
H              -16.037             33.612              31.496              
H              -16.621             36.148              32.636              
H              -17.176             35.68               31.173              
H              -17.658             34.892              32.52               
N              -9.936              33.675              32.505              
C              -8.722              33.973              31.684              
C              -7.717              32.807              31.775              
O              -7.04               32.483              30.816              
C              -8.082              35.309              32.082              
C              -7.032              35.832              31.081              
C              -7.693              36.278              29.75               
C              -6.178              36.967              31.649              
H              -10.202             34.224              33.328              
H              -9.009              34.072              30.733              
H              -8.797              35.987              32.137              
H              -7.627              35.186              32.947              
H              -6.376              35.105              30.886              
H              -8.344              37.006              29.945              
H              -6.983              36.607              29.135              
H              -8.161              35.497              29.348              
H              -5.691              36.641              32.459              
H              -5.519              37.263              30.958              
H              -6.77               37.733              31.898              
N              -7.61               32.168              32.941              
C              -6.672              31.055              33.101              
C              -7.148              29.829              32.319              
O              -6.315              29.105              31.78               
C              -6.479              30.634              34.565              
C              -5.442              29.517              34.663              
C              -4.694              29.465              36.002              
H              -8.224              32.515              33.692              
H              -5.787              31.338              32.718              
H              -6.152              31.407              35.08               
H              -7.335              30.294              34.916              
H              -5.905              28.636              34.53               
H              -4.765              29.641              33.931              
O              -5.168              29.927              37.056              
N              -3.486              28.873              35.958              
H              -2.926              28.813              36.802              
H              -3.16               28.497              35.08               
N              -8.459              29.635              32.214              
C              -8.987              28.586              31.351              
C              -8.521              28.855              29.909              
O              -8.086              27.93               29.206              
C              -10.533             28.51               31.411              
C              -11.072             27.384              30.553              
O              -11.086             26.266              31.013              
O              -11.419             27.642              29.402              
H              -9.046              30.269              32.777              
H              -8.569              27.725              31.631              
H              -10.787             28.352              32.352              
H              -10.887             29.37               31.08               
N              -8.635              30.099              29.438              
C              -8.157              30.463              28.081              
C              -6.665              30.122              27.929              
O              -6.231              29.484              26.97               
C              -8.411              31.951              27.779              
C              -7.753              32.365              26.461              
C              -9.933              32.236              27.79               
H              -9.074              30.777              30.081              
H              -8.669              29.914              27.419              
H              -7.977              32.487              28.498              
H              -6.781              32.14               26.493              
H              -8.187              31.875              25.707              
H              -7.866              33.349              26.331              
H              -10.403             31.464              27.372              
H              -10.227             32.351              28.734              
H              -10.103             33.068              27.27               
N              -5.884              30.547              28.914              
C              -4.466              30.306              28.891              
C              -4.093              28.82               28.875              
O              -3.268              28.425              28.046              
C              -3.802              30.953              30.082              
C              -2.344              30.591              30.196              
C              -1.425              31.112              29.314              
C              -1.907              29.714              31.192              
C              -0.074              30.757              29.412              
C              -0.58               29.342              31.262              
C              0.321               29.852              30.377              
H              -6.378              31.051              29.674              
H              -4.104              30.698              28.024              
H              -3.861              31.931              29.98               
H              -4.253              30.64               30.9                
H              -1.705              31.744              28.602              
H              -2.564              29.359              31.854              
H              0.588               31.164              28.779              
H              -0.287              28.682              31.982              
H              1.291               29.573              30.418              
N              -4.627              28.033              29.825              
C              -4.161              26.632              29.991              
C              -4.538              25.792              28.767              
O              -3.718              25.01               28.266              
C              -4.708              26.002              31.287              
C              -4.283              26.726              32.533              
C              -2.853              26.503              32.899              
O              -2.231              25.576              32.313              
O              -2.342              27.3                33.738              
H              -5.353              28.463              30.402              
H              -3.167              26.629              30.11               
H              -5.689              26.031              31.231              
H              -4.364              25.083              31.33               
H              -4.411              27.698              32.386              
H              -4.842              26.406              33.286              
N              -5.714              26.033              28.197              
C              -6.099              25.248              27.034              
C              -5.206              25.515              25.823              
O              -4.824              24.594              25.118              
C              -7.601              25.329              26.748              
C              -8.4                24.331              27.571              
C              -8.825              24.656              28.857              
C              -8.615              23.064              27.105              
C              -9.47               23.737              29.649              
C              -9.28               22.14               27.871              
C              -9.72               22.478              29.141              
H              -6.28               26.766              28.62               
H              -5.971              24.274              27.278              
H              -7.91               26.228              26.987              
H              -7.744              25.118              25.801              
H              -8.657              25.579              29.208              
H              -8.284              22.804              26.191              
H              -9.752              23.98               30.58               
H              -9.449              21.206              27.508              
H              -10.222             21.808              29.693              
N              -4.881              26.778              25.567              
C              -4.004              27.102              24.461              
C              -2.507              26.793              24.722              
O              -1.758              26.374              23.803              
C              -4.211              28.532              23.984              
C              -3.445              28.795              22.691              
C              -3.9                30.088              22.018              
N              -3.105              30.282              20.814              
C              -2.965              31.43               20.169              
N              -3.601              32.526              20.58               
N              -2.152              31.472              19.096              
H              -5.295              27.476              26.204              
H              -4.289              26.569              23.64               
H              -5.168              28.67               23.805              
H              -3.869              29.147              24.671              
H              -2.473              28.876              22.892              
H              -3.601              28.045              22.055              
H              -4.847              29.991              21.78               
H              -3.743              30.828              22.644              
H              -2.62               29.473              20.439              
H              -4.177              32.501              21.393              
H              -3.498              33.382              20.067              
H              -1.657              30.656              18.816              
H              -2.052              32.326              18.59               
N              -2.057              26.966              25.962              
C              -0.69               26.592              26.33               
C              -0.418              25.085              26.089              
O              0.693               24.695              25.668              
C              -0.359              26.976              27.787              
C              1.123               26.782              28.129              
C              2.066               27.647              27.644              
C              1.55                25.736              28.921              
C              3.414               27.474              27.913              
C              2.919               25.535              29.185              
C              3.849               26.432              28.693              
O              5.243               26.306              28.924              
H              -2.736              27.376              26.624              
H              -0.049              27.112              25.752              
H              -0.581              27.931              27.916              
H              -0.889              26.399              28.39               
H              1.784               28.432              27.076              
H              0.889               25.105              29.32               
H              4.084               28.129              27.528              
H              3.206               24.747              29.724              
H              5.635               27.217              28.934              
N              -1.448              24.268              26.379              
C              -1.457              22.827              26.167              
C              -1.236              22.465              24.673              
O              -0.738              21.369              24.389              
C              -2.746              22.204              26.712              
H              -2.277              24.786              26.789              
H              -0.71               22.408              26.699              
H              -3.102              21.549              26.048              
H              -2.548              21.737              27.572              
H              -3.419              22.924              26.868              
N              -1.633              23.341              23.747              
C              -1.434              23.137              22.315              
C              -0.057              23.602              21.819              
O              0.138               23.796              20.632              
C              -2.526              23.808              21.504              
C              -3.955              23.468              21.907              
C              -4.92               24.263              20.986              
C              -6.392              23.905              21.252              
N              -6.775              23.859              22.708              
H              -2.102              24.192              24.14               
H              -1.528              22.146              22.109              
H              -2.412              24.805              21.582              
H              -2.407              23.55               20.537              
H              -4.119              22.508              21.771              
H              -4.115              23.747              22.836              
H              -4.792              25.23               21.162              
H              -4.705              24.042              20.044              
H              -6.977              24.585              20.784              
H              -6.583              23.001              20.837              
H              -6.817              24.79               23.06               
H              -7.666              23.421              22.793              
H              -6.088              23.336              23.206              
N              0.893               23.762              22.732              
C              2.288               24.105              22.415              
C              2.88                23.128              21.398              
O              2.82                21.912              21.596              
C              3.119               23.986              23.703              
C              4.611               24.331              23.654              
S              4.903               26.102              23.693              
C              4.116               26.616              25.202              
H              0.564               23.621              23.722              
H              2.296               25.023              22.006              
H              2.685               24.577              24.424              
H              3.032               23.024              24.057              
H              5.071               23.864              24.44               
H              5.008               23.91               22.809              
H              4.584               27.421              25.575              
H              3.156               26.849              25.026              
H              4.153               25.875              25.877              
N              3.536               23.645              20.359              
C              4.175               22.715              19.429              
C              5.384               22.042              20.072              
O              6.072               22.624              20.923              
C              4.618               23.642              18.28               
C              4.975               24.913              18.976              
C              3.946               25.046              20.097              
H              3.517               22.027              19.101              
H              5.406               23.256              17.806              
H              3.87                23.78               17.635              
H              5.899               24.866              19.357              
H              4.911               25.692              18.353              
H              4.354               25.45               20.911              
H              3.164               25.592              19.803              
N              5.644               20.803              19.69               
C              6.945               20.243              19.979              
C              7.951               21.209              19.355              
O              9.103               21.269              19.772              
C              7.097               18.856              19.371              
C              8.246               18.079              19.968              
O              9.116               17.608              19.189              
O              8.276               17.936              21.221              
O              7.806               22.008              18.43               
H              4.89                20.313              19.205              
H              7.081               20.281              20.957              
H              6.253               18.354              19.532              
H              7.254               18.962              18.395              
H              -11.6426            32.4038             34.1186             
