221
5.xyz
C              -3.715              34.064              47.212              
C              -4.367              35.232              47.948              
O              -4.746              35.059              49.121              
C              -2.215              34.304              47.131              
C              -1.551              34.329              48.486              
C              -0.059              34.65               48.41               
C              0.629               34.348              49.749              
N              2.089               34.698              49.797              
H              -3.855              33.222              47.759              
H              -1.81               33.572              46.593              
H              -2.063              35.182              46.686              
H              -1.996              35.024              49.062              
H              -1.66               33.432              48.928              
H              0.356               34.086              47.711              
H              0.055               35.612              48.211              
H              0.147               34.858              50.48               
H              0.524               33.361              49.949              
H              2.442               34.496              50.708              
H              2.575               34.156              49.116              
H              2.197               35.669              49.599              
N              -4.442              36.4                47.294              
C              -4.756              37.656              47.986              
C              -6.264              37.724              48.355              
O              -6.645              38.151              49.479              
C              -4.279              38.895              47.171              
C              -4.701              40.167              47.885              
C              -4.006              40.6                48.989              
C              -5.848              40.863              47.527              
C              -4.393              41.746              49.699              
C              -6.268              41.977              48.25               
C              -5.538              42.406              49.349              
O              -5.947              43.551              50.077              
H              -4.262              36.338              46.275              
H              -4.234              37.688              48.842              
H              -3.305              38.867              47.124              
H              -4.713              38.865              46.298              
H              -3.198              40.093              49.308              
H              -6.382              40.563              46.739              
H              -3.821              42.069              50.457              
H              -7.097              42.467              47.976              
H              -5.244              43.757              50.745              
N              -7.104              37.355              47.398              
C              -8.521              37.679              47.401              
C              -9.398              36.626              48.043              
O              -9.136              35.415              47.933              
C              -8.999              37.892              45.964              
C              -8.356              39.112              45.328              
H              -6.651              36.8                46.625              
H              -8.63               38.533              47.949              
H              -8.757              37.091              45.429              
H              -9.983              38.022              45.975              
O              -8.707              40.231              45.689              
N              -7.363              38.919              44.463              
H              -7.084              37.971              44.262              
H              -6.912              39.683              44.029              
N              -10.493             37.081              48.656              
C              -11.549             36.147              49.049              
C              -12.007             35.398              47.813              
O              -12.139             35.997              46.718              
C              -12.668             37.046              49.587              
C              -12.089             38.378              49.762              
C              -10.847             38.482              48.942              
H              -11.227             35.52               49.753              
H              -13.446             37.059              48.934              
H              -13.021             36.673              50.462              
H              -12.759             39.105              49.488              
H              -11.88              38.556              50.75               
H              -11.006             38.982              48.087              
H              -10.104             38.933              49.446              
N              -12.223             34.082              47.949              
C              -12.492             33.34               46.726              
C              -13.822             33.691              46.019              
O              -14.011             33.275              44.882              
C              -12.487             31.865              47.182              
C              -12.642             31.896              48.665              
C              -12.148             33.221              49.151              
H              -11.715             33.438              46.064              
H              -13.246             31.365              46.748              
H              -11.623             31.422              46.916              
H              -13.617             31.758              48.92               
H              -12.116             31.136              49.089              
H              -12.729             33.591              49.878              
H              -11.203             33.168              49.48               
N              -14.71              34.444              46.677              
C              -15.964             34.888              46.054              
C              -15.893             36.292              45.404              
O              -16.91              36.828              44.997              
C              -17.129             34.828              47.075              
C              -17.006             35.868              48.205              
O              -15.92              36.476              48.388              
O              -18.009             36.071              48.928              
H              -14.441             34.683              47.649              
H              -16.174             34.234              45.304              
H              -17.973             34.998              46.583              
H              -17.133             33.923              47.48               
N              -14.706             36.871              45.303              
C              -14.568             38.21               44.779              
C              -14.705             38.13               43.28               
O              -14.327             37.135              42.661              
C              -13.211             38.79               45.179              
C              -13.089             40.271              44.947              
H              -13.908             36.29               45.626              
H              -15.309             38.773              45.137              
H              -13.052             38.612              46.157              
H              -12.489             38.33               44.65               
N              -12.848             40.809              43.711              
C              -13.197             41.351              45.837              
C              -12.811             42.164              43.816              
N              -13.029             42.493              45.113              
H              -12.719             40.311              42.862              
H              -13.364             41.265              46.809              
H              -12.653             42.793              43.081              
N              -15.217             39.187              42.679              
C              -15.416             39.216              41.23               
C              -14.13              38.95               40.45               
O              -14.163             38.295              39.424              
C              -15.986             40.565              40.763              
C              -17.448             40.761              41.135              
O              -18.106             39.804              41.572              
O              -17.913             41.905              40.994              
H              -15.462             39.978              43.303              
H              -16.059             38.467              41.003              
H              -15.449             41.286              41.188              
H              -15.899             40.607              39.774              
N              -13.006             39.44               40.963              
C              -11.717             39.362              40.235              
C              -11.264             37.898              40.157              
O              -10.569             37.536              39.238              
C              -10.615             40.285              40.809              
C              -10.071             39.791              42.141              
C              -9.469              40.489              39.784              
H              -13.097             39.875              41.898              
H              -11.871             39.689              39.306              
H              -11.032             41.182              40.976              
H              -9.305              39.169              41.979              
H              -9.758              40.57               42.684              
H              -10.792             39.308              42.638              
H              -8.948              39.643              39.72               
H              -9.871              40.717              38.903              
H              -8.888              41.231              40.104              
N              -11.591             37.103              41.166              
C              -11.237             35.672              41.152              
C              -12.022             34.916              40.059              
O              -11.475             34                  39.362              
C              -11.421             35.054              42.581              
C              -11.211             33.538              42.497              
C              -10.435             35.735              43.588              
H              -12.1               37.553              41.942              
H              -10.26              35.595              40.935              
H              -12.358             35.205              42.846              
H              -11.092             33.171              43.418              
H              -12.009             33.119              42.068              
H              -10.397             33.349              41.952              
H              -9.908              36.414              43.092              
H              -10.973             36.161              44.306              
H              -9.842              35.032              43.962              
N              -13.306             35.28               39.871              
C              -14.107             34.679              38.799              
C              -13.468             34.998              37.425              
O              -13.405             34.15               36.514              
C              -15.577             35.141              38.876              
H              -13.657             35.991              40.525              
H              -14.116             33.686              38.915              
H              -15.728             35.597              39.749              
H              -15.758             35.772              38.126              
H              -16.171             34.345              38.801              
N              -13.01              36.229              37.283              
C              -12.34              36.675              36.061              
C              -11.015             35.958              35.832              
O              -10.746             35.51               34.708              
C              -12.129             38.181              36.109              
C              -13.422             38.96               35.884              
S              -13.163             40.732              35.931              
C              -13.552             40.972              37.655              
H              -13.163             36.852              38.104              
H              -12.947             36.467              35.279              
H              -11.76              38.436              37.006              
H              -11.474             38.447              35.398              
H              -13.819             38.669              34.985              
H              -14.1               38.667              36.594              
H              -14.378             40.456              37.892              
H              -12.791             40.651              38.223              
H              -13.709             41.945              37.835              
N              -10.217             35.825              36.893              
C              -8.943              35.083              36.832              
C              -9.17               33.63               36.339              
O              -8.469              33.153              35.421              
C              -8.227              35.095              38.189              
H              -10.563             36.283              37.759              
H              -8.332              35.542              36.182              
H              -8.847              35.454              38.884              
H              -7.957              34.164              38.426              
H              -7.418              35.675              38.128              
N              -10.164             32.947              36.915              
C              -10.47              31.568              36.513              
C              -10.746             31.466              35.017              
O              -10.209             30.575              34.337              
C              -11.643             30.993              37.313              
C              -11.37              30.828              38.803              
C              -12.474             30.052              39.5                
N              -12.474             28.675              39.038              
C              -13.541             27.89               38.942              
N              -14.743             28.329              39.283              
N              -13.391             26.654              38.492              
H              -10.683             33.458              37.646              
H              -9.677              30.986              36.736              
H              -12.422             31.607              37.209              
H              -11.865             30.096              36.94               
H              -10.512             30.333              38.929              
H              -11.306             31.729              39.229              
H              -12.301             30.077              40.473              
H              -13.338             30.479              39.276              
H              -11.579             28.273              38.763              
H              -14.871             29.268              39.6                
H              -15.536             27.715              39.222              
H              -12.491             26.322              38.209              
H              -14.185             26.043              38.431              
N              -11.543             32.4                34.502              
H              -11.876             33.11               35.188              
H              -11.797             32.4097             33.5243             
H              -4.12407            33.917              46.2454             
