289
0.xyz
N              19.053              -1.855              0.946               
C              17.951              -2.739              0.615               
C              17.137              -2.154              -0.528              
O              17.329              -0.998              -0.93               
H              18.704              -0.972              1.271               
H              18.307              -3.638              0.343               
H              17.359              -2.858              1.418               
H              19.619              -2.262              1.667               
H              19.626              -1.697              0.137               
N              16.234              -2.951              -1.081              
C              15.382              -2.458              -2.157              
C              14.345              -1.484              -1.643              
O              13.857              -1.607              -0.515              
C              14.667              -3.603              -2.874              
C              15.589              -4.551              -3.567              
C              16.42               -4.117              -4.579              
C              15.607              -5.886              -3.215              
C              17.27               -5.004              -5.22               
C              16.454              -6.767              -3.827              
C              17.289              -6.333              -4.834              
H              16.189              -3.906              -0.701              
H              15.979              -1.947              -2.791              
H              14.154              -4.109              -2.195              
H              14.065              -3.204              -3.552              
H              16.415              -3.16               -4.856              
H              14.983              -6.211              -2.493              
H              17.866              -4.677              -5.961              
H              16.467              -7.744              -3.54               
H              17.911              -6.973              -5.289              
N              13.983              -0.528              -2.487              
C              12.928              0.421               -2.151              
C              11.586              -0.295              -2.098              
O              11.406              -1.322              -2.764              
C              12.897              1.543               -3.193              
C              14.084              2.504               -3.197              
C              14.212              3.292               -4.503              
C              13.898              3.43                -2.035              
H              14.502              -0.514              -3.384              
H              13.119              0.806               -1.245              
H              12.854              1.119               -4.096              
H              12.075              2.084               -3.033              
H              14.932              1.978               -3.048              
H              13.383              3.831               -4.646              
H              15.002              3.9                 -4.445              
H              14.333              2.655               -5.262              
H              13.872              2.908               -1.177              
H              14.657              4.088               -1.991              
H              13.036              3.937               -2.13               
N              10.609              0.261               -1.358              
C              9.268               -0.323              -1.413              
C              8.711               -0.286              -2.816              
O              9.179               0.461               -3.672              
C              8.43                0.572               -0.489              
C              9.387               1.334               0.329               
C              10.66               1.448               -0.49               
H              9.278               -1.266              -1.05               
H              7.843               1.186               -1.04               
H              7.821               0.004               0.086               
H              9.031               2.255               0.547               
H              9.578               0.863               1.203               
H              10.664              2.285               -1.034              
H              11.469              1.425               0.097               
N              7.711               -1.108              -3.041              
C              7.056               -1.215              -4.321              
C              6.501               0.154               -4.72               
O              5.906               0.853               -3.897              
C              5.976               -2.279              -4.197              
C              5.202               -2.625              -5.42               
C              4.146               -3.681              -5.01               
C              3.382               -4.281              -6.207              
N              4.288               -5.08               -7.107              
H              7.429               -1.683              -2.205              
H              7.72                -1.501              -5.015              
H              6.419               -3.125              -3.843              
H              5.325               -1.97               -3.476              
H              4.723               -1.837              -5.763              
H              5.787               -3.03               -6.099              
H              4.612               -4.422              -4.531              
H              3.485               -3.247              -4.401              
H              2.659               -4.877              -5.859              
H              2.975               -3.535              -6.733              
H              4.583               -4.502              -7.863              
H              5.078               -5.385              -6.581              
H              3.785               -5.867              -7.455              
N              6.771               0.562               -5.95               
C              6.274               1.833               -6.453              
C              7.234               2.992               -6.327              
O              6.943               4.076               -6.832              
H              7.354               -0.088              -6.511              
H              6.011               1.72                -7.439              
H              5.401               2.065               -5.965              
N              8.391               2.77                -5.695              
C              9.372               3.843               -5.475              
C              10.657              3.699               -6.291              
O              11.06               2.59                -6.654              
C              9.768               3.901               -3.997              
C              8.706               4.36                -3.024              
C              7.592               3.685               -2.64               
C              8.714               5.582               -2.282              
N              6.904               4.412               -1.696              
C              7.574               5.581               -1.463              
C              9.58                6.683               -2.232              
C              7.27                6.637               -0.611              
C              9.284               7.716               -1.369              
C              8.136               7.69                -0.588              
H              8.535               1.794               -5.379              
H              8.931               4.717               -5.753              
H              10.053              2.984               -3.701              
H              10.546              4.529               -3.893              
H              7.307               2.793               -2.987              
H              6.054               4.131               -1.253              
H              10.393              6.719               -2.807              
H              6.442               6.609               -0.043              
H              9.909               8.493               -1.31               
H              7.944               8.477               0.012               
N              11.305              4.824               -6.574              
C              12.622              4.795               -7.19               
C              13.429              5.931               -6.593              
O              12.879              6.783               -5.875              
C              12.542              4.888               -8.714              
C              11.842              6.093               -9.237              
C              12.053              6.303               -10.744             
O              11.05               6.488               -11.456             
O              13.224              6.284               -11.199             
H              10.804              5.694               -6.324              
H              13.068              3.927               -6.998              
H              13.474              4.895               -9.055              
H              12.058              4.083               -9.031              
H              10.871              5.993               -9.101              
H              12.194              6.898               -8.79               
N              14.737              5.917               -6.828              
C              15.585              7.011               -6.375              
C              16.379              7.572               -7.556              
O              16.805              6.829               -8.43               
C              16.51               6.548               -5.231              
C              17.353              5.356               -5.658              
C              17.351              7.705               -4.683              
H              15.084              5.092               -7.341              
H              14.997              7.743               -6.025              
H              15.931              6.242               -4.479              
H              18.193              5.679               -6.094              
H              17.586              4.806               -4.856              
H              16.837              4.796               -6.306              
H              17.169              7.805               -3.707              
H              18.317              7.503               -4.83               
H              17.102              8.544               -5.163              
N              16.556              8.887               -7.58               
C              17.327              9.573               -8.622              
C              18.102              10.703              -7.95               
O              17.954              10.929              -6.76               
C              16.424              10.133              -9.721              
C              15.622              9.094               -10.499             
C              14.902              9.709               -11.694             
N              13.832              8.842               -12.182             
C              13.063              9.116               -13.237             
N              13.264              10.218              -13.94              
N              12.098              8.281               -13.594             
H              16.098              9.399               -6.789              
H              17.973              8.933               -9.019              
H              15.775              10.768              -9.3                
H              16.996              10.629              -10.374             
H              16.237              8.386               -10.838             
H              14.936              8.689               -9.899              
H              14.517              10.579              -11.407             
H              15.571              9.848               -12.417             
H              13.662              7.98                -11.69              
H              14                  10.851              -13.711             
H              12.664              10.426              -14.724             
H              11.963              7.431               -13.076             
H              11.51               8.491               -14.37              
N              18.91               11.416              -8.718              
C              19.705              12.505              -8.18               
C              19.153              13.807              -8.729              
O              18.903              13.92               -9.929              
C              21.205              12.339              -8.541              
C              21.885              11.23               -7.788              
H              18.925              11.134              -9.719              
H              19.607              12.514              -7.188              
H              21.278              12.15               -9.523              
H              21.678              13.199              -8.338              
N              22.576              11.443              -6.613              
C              21.942              9.896               -8.019              
C              23.05               10.291              -6.165              
N              22.683              9.336               -7.003              
H              22.698              12.331              -6.17               
H              21.527              9.409               -8.782              
H              23.591              10.165              -5.34               
N              18.984              14.787              -7.843              
C              18.457              16.094              -8.212              
C              19.558              16.898              -8.828              
O              20.724              16.515              -8.725              
C              17.907              16.807              -7.004              
H              19.261              14.537              -6.868              
H              17.724              15.965              -8.882              
H              17.334              16.182              -6.47               
H              18.659              17.133              -6.428              
H              17.354              17.591              -7.292              
N              19.207              18.022              -9.462              
C              20.268              18.847              -10.034             
C              21.38               19.166              -9.035              
O              22.542              19.162              -9.445              
C              19.519              20.11               -10.465             
C              18.169              19.594              -10.87              
C              17.87               18.472              -9.896              
H              20.654              18.409              -10.865             
H              19.44               20.753              -9.705              
H              19.977              20.55               -11.234             
H              17.48               20.317              -10.8               
H              18.192              19.25               -11.81              
H              17.339              18.802              -9.116              
H              17.375              17.726              -10.344             
N              21.05               19.405              -7.762              
C              22.082              19.753              -6.787              
C              22.873              18.54               -6.341              
O              23.758              18.643              -5.483              
C              21.483              20.44               -5.569              
C              20.626              19.502              -4.722              
H              20.05               19.325              -7.542              
H              22.727              20.377              -7.251              
H              22.224              20.785              -4.998              
H              20.908              21.194              -5.876              
O              20.55               18.305              -4.982              
N              19.975              20.055              -3.698              
H              20.063              21.038              -3.529              
H              19.404              19.493              -3.106              
N              22.532              17.386              -6.898              
C              23.289              16.169              -6.667              
C              22.764              15.286              -5.55               
O              23.251              14.169              -5.339              
H              21.687              17.43               -7.506              
H              23.319              15.624              -7.536              
H              24.265              16.415              -6.466              
N              21.781              15.784              -4.814              
C              21.252              15.062              -3.671              
C              20.279              13.997              -4.178              
O              19.496              14.258              -5.091              
C              20.577              16.047              -2.721              
C              20.097              15.473              -1.441              
C              19.435              16.531              -0.582              
N              18.859              15.967              0.637               
C              18.167              16.665              1.527               
N              17.938              17.952              1.313               
N              17.673              16.074              2.61                
H              21.432              16.713              -5.12               
H              22                  14.606              -3.194              
H              21.239              16.778              -2.521              
H              19.795              16.451              -3.208              
H              19.423              14.755              -1.612              
H              20.862              15.095              -0.92               
H              20.123              17.209              -0.336              
H              18.712              16.96               -1.119              
H              18.998              14.985              0.811               
H              18.254              18.411              0.489               
H              17.426              18.485              2.004               
H              17.814              15.088              2.736               
H              17.17               16.601              3.287               
N              20.33               12.788              -3.609              
C              19.337              11.805              -4.037              
C              17.949              12.215              -3.56               
O              17.838              12.753              -2.45               
C              19.802              10.515              -3.373              
C              20.576              10.967              -2.189              
C              21.191              12.27               -2.529              
H              19.352              11.69               -5.034              
H              19.015              9.954               -3.098              
H              20.377              9.98                -3.999              
H              19.964              11.05               -1.38               
H              21.285              10.277              -1.95               
H              21.187              12.904              -1.751              
H              22.135              12.169              -2.859              
N              16.933              12.028              -4.407              
C              15.546              12.154              -3.962              
C              14.866              13.402              -4.534              
C              14.668              13.411              -6.025              
C              15.742              13.567              -6.893              
C              13.378              13.363              -6.572              
C              15.533              13.619              -8.278              
C              13.183              13.398              -7.944              
C              14.264              13.543              -8.793              
H              17.208              11.794              -5.375              
H              15.572              12.218              -2.959              
H              13.97               13.48               -4.106              
H              15.429              14.188              -4.296              
H              16.665              13.642              -6.54               
H              12.591              13.302              -5.958              
H              16.336              13.715              -8.885              
H              12.243              13.318              -8.318              
H              14.12               13.592              -9.785              
H              14.9959             11.2671             -4.21621            
