237
1.xyz
C              14.576              -0.281              -22.214             
C              15.419              0.11                -21.004             
O              15.201              1.159               -20.387             
C              15.004              0.538               -23.429             
C              16.452              0.356               -23.82              
C              16.734              1.079               -25.139             
C              16.815              2.584               -24.936             
N              16.642              3.328               -26.215             
H              14.725              -1.253              -22.409             
H              14.43               0.269               -24.203             
H              14.85               1.505               -23.222             
H              17.038              0.742               -23.116             
H              16.646              -0.611              -23.941             
H              17.602              0.758               -25.498             
H              15.997              0.882               -25.774             
H              16.097              2.864               -24.293             
H              17.71               2.812               -24.542             
H              16.63               2.68                -26.976             
H              15.78               3.832               -26.19              
H              17.401              3.967               -26.331             
N              16.36               -0.751              -20.642             
C              17.23               -0.467              -19.505             
C              18.296              0.522               -19.945             
O              19.019              0.258               -20.907             
C              17.901              -1.731              -18.979             
C              18.902              -1.377              -17.879             
C              16.85               -2.723              -18.482             
H              16.422              -1.608              -21.213             
H              16.681              -0.036              -18.791             
H              18.425              -2.137              -19.721             
H              18.991              -2.15               -17.252             
H              19.789              -1.176              -18.292             
H              18.575              -0.576              -17.38              
H              17.124              -3.067              -17.585             
H              15.969              -2.258              -18.412             
H              16.783              -3.48               -19.13              
N              18.388              1.649               -19.248             
C              19.372              2.687               -19.574             
C              20.615              2.57                -18.71              
O              21.725              2.816               -19.171             
C              18.774              4.07                -19.377             
C              17.572              4.432               -20.25              
C              17.122              5.836               -19.905             
C              17.94               4.326               -21.717             
H              17.713              1.734               -18.462             
H              19.64               2.576               -20.54              
H              18.479              4.147               -18.424             
H              19.487              4.745               -19.562             
H              16.836              3.79                -20.069             
H              17.869              6.482               -20.075             
H              16.334              6.087               -20.47              
H              16.862              5.88                -18.939             
H              18.225              3.389               -21.927             
H              17.148              4.565               -22.282             
H              18.693              4.954               -21.922             
N              20.414              2.226               -17.44              
C              21.525              2.178               -16.49              
C              21.294              1.082               -15.472             
O              20.156              0.832               -15.083             
C              21.686              3.524               -15.781             
C              22.443              4.559               -16.606             
C              23.835              4.037               -16.953             
C              24.34               4.572               -18.288             
N              24.269              6.056               -18.381             
H              19.437              2.003               -17.193             
H              22.372              1.984               -16.995             
H              20.779              3.884               -15.584             
H              22.187              3.373               -14.933             
H              21.945              4.732               -17.448             
H              22.535              5.394               -16.077             
H              24.47               4.32                -16.238             
H              23.801              3.041               -17.003             
H              25.296              4.279               -18.413             
H              23.788              4.168               -19.028             
H              24.149              6.44                -17.466             
H              25.116              6.404               -18.782             
H              23.494              6.315               -18.957             
N              22.372              0.428               -15.05              
C              22.288              -0.594              -14.01              
C              23.113              -0.141              -12.818             
O              24.232              0.329               -12.992             
C              22.82               -1.951              -14.495             
C              22.686              -2.996              -13.408             
C              22.086              -2.393              -15.766             
H              23.259              0.701               -15.514             
H              21.335              -0.667              -13.721             
H              23.793              -1.845              -14.683             
H              21.744              -3.012              -13.069             
H              22.919              -3.898              -13.775             
H              23.305              -2.778              -12.652             
H              21.329              -2.992              -15.512             
H              21.738              -1.585              -16.238             
H              22.725              -2.883              -16.356             
N              22.573              -0.273              -11.615             
C              23.365              0.05                -10.428             
C              23.15               -0.978              -9.326              
O              22.109              -1.629              -9.257              
C              23.035              1.457               -9.912              
C              23.715              2.593               -10.691             
C              23.384              3.982               -10.161             
O              22.957              4.104               -8.997              
O              23.552              4.96                -10.92              
H              21.604              -0.603              -11.589             
H              24.342              0.081               -10.674             
H              22.064              1.587               -9.993              
H              23.342              1.517               -8.98               
H              24.689              2.47                -10.618             
H              23.406              2.549               -11.625             
N              24.157              -1.142              -8.474              
C              24.033              -2.016              -7.309              
C              24.391              -1.189              -6.094              
O              25.444              -0.566              -6.053              
C              24.949              -3.236              -7.441              
C              24.826              -4.236              -6.323              
C              23.803              -5.174              -6.307              
C              25.77               -4.263              -5.298              
C              23.712              -6.102              -5.292              
C              25.677              -5.193              -4.286              
C              24.659              -6.114              -4.286              
H              25.016              -0.61               -8.702              
H              23.073              -2.255              -7.228              
H              24.72               -3.696              -8.289              
H              25.886              -2.91               -7.458              
H              23.126              -5.178              -7.04               
H              26.518              -3.6                -5.304              
H              22.954              -6.767              -5.288              
H              26.369              -5.19               -3.538              
H              24.596              -6.802              -3.556              
N              23.49               -1.139              -5.121              
C              23.745              -0.384              -3.907              
C              22.917              -0.981              -2.773              
O              21.794              -1.437              -2.996              
C              23.418              1.096               -4.113              
C              23.802              1.986               -2.917              
C              23.426              3.446               -3.143              
C              23.325              4.208               -1.823              
N              22.351              3.57                -0.884              
H              22.62               -1.668              -5.3                
H              24.713              -0.458              -3.669              
H              23.917              1.423               -4.909              
H              22.438              1.186               -4.259              
H              23.327              1.649               -2.103              
H              24.79               1.922               -2.775              
H              24.126              3.876               -3.702              
H              22.544              3.485               -3.598              
H              24.23               4.23                -1.392              
H              23.03               5.147               -2.013              
H              22.09               2.675               -1.241              
H              22.78               3.465               0.012               
H              21.543              4.151               -0.806              
N              23.486              -1.001              -1.571              
C              22.805              -1.55               -0.406              
C              22.281              -2.951              -0.67               
O              21.136              -3.271              -0.338              
C              21.673              -0.617              0.03                
C              22.182              0.752               0.433               
O              23.249              0.809               1.084               
O              21.542              1.77                0.089               
H              24.444              -0.597              -1.537              
H              23.49               -1.623              0.333               
H              21.049              -0.515              -0.734              
H              21.216              -1.031              0.806               
N              23.137              -3.77               -1.275              
C              22.876              -5.177              -1.547              
C              21.679              -5.422              -2.468              
O              21.111              -6.51               -2.468              
C              22.69               -5.955              -0.236              
C              23.04               -7.421              -0.379              
H              24.045              -3.301              -1.548              
H              23.694              -5.547              -2.026              
H              23.282              -5.55               0.453               
H              21.737              -5.878              0.039               
O              24.026              -7.779              -1.025              
N              22.229              -8.28               0.219               
H              21.431              -7.949              0.726               
H              22.409              -9.264              0.166               
N              21.326              -4.421              -3.274              
C              20.252              -4.59               -4.248              
C              20.542              -3.942              -5.598              
O              21.148              -2.878              -5.675              
C              18.926              -4.052              -3.701              
C              18.777              -2.548              -3.601              
C              17.374              -2.146              -3.163              
O              16.434              -2.977              -3.216              
O              17.185              -0.987              -2.749              
H              21.861              -3.548              -3.152              
H              20.075              -5.584              -4.385              
H              18.201              -4.387              -4.299              
H              18.808              -4.428              -2.784              
H              19.401              -2.217              -2.924              
H              18.93               -2.158              -4.486              
N              20.082              -4.609              -6.65               
C              20.167              -4.084              -8.01               
C              19.015              -3.126              -8.299              
O              17.878              -3.376              -7.885              
C              20.147              -5.222              -9.021              
C              21.356              -6.073              -8.947              
C              21.491              -7.265              -8.292              
C              22.626              -5.783              -9.526              
N              22.771              -7.739              -8.442              
C              23.487              -6.847              -9.199              
C              23.119              -4.732              -10.3               
C              24.813              -6.883              -9.613              
C              24.439              -4.773              -10.71              
C              25.266              -5.836              -10.36              
H              19.657              -5.535              -6.424              
H              21.023              -3.56               -8.084              
H              19.36               -5.798              -8.84               
H              20.102              -4.839              -9.935              
H              20.768              -7.724              -7.78               
H              23.125              -8.592              -8.064              
H              22.536              -3.965              -10.556             
H              25.402              -7.658              -9.362              
H              24.797              -4.025              -11.264             
H              26.223              -5.824              -10.671             
N              19.313              -2.038              -9.005              
C              18.288              -1.113              -9.469              
C              18.27               0.179               -8.653              
C              17.341              0.151               -7.435              
C              17.002              1.567               -6.964              
C              15.927              1.538               -5.888              
N              16.05               0.311               -5.06               
H              20.329              -1.909              -9.193              
H              17.394              -1.548              -9.38               
H              19.198              0.36                -8.329              
H              17.974              0.924               -9.25               
H              16.496              -0.316              -7.683              
H              17.794              -0.336              -6.693              
H              17.82               1.981               -6.587              
H              16.666              2.088               -7.737              
H              16.03               2.342               -5.305              
H              15.029              1.553               -6.326              
H              15.819              -0.489              -5.614              
H              16.989              0.226               -4.728              
H              15.425              0.37                -4.282              
H              13.5489             -0.123776           -21.9993            
H              18.4769             -0.898282           -10.5146            
