187
2.xyz
C              18.553              -0.826              -10.818             
O              19.712              -0.86               -11.273             
N              17.488              -0.476              -11.526             
C              17.547              -0.334              -12.973             
C              16.869              0.95                -13.366             
O              15.721              1.16                -13.011             
C              16.87               -1.539              -13.672             
C              17.466              -2.851              -13.203             
C              17.048              -3.45               -12.021             
C              18.5                -3.447              -13.912             
C              17.616              -4.63               -11.584             
C              19.079              -4.631              -13.473             
C              18.631              -5.21               -12.314             
O              19.202              -6.378              -11.864             
H              16.626              -0.315              -10.969             
H              18.51               -0.284              -13.244             
H              15.914              -1.526              -13.442             
H              17.021              -1.453              -14.64              
H              16.324              -3.019              -11.478             
H              18.833              -3.02               -14.751             
H              17.29               -5.064              -10.739             
H              19.816              -5.052              -14.002             
H              19.216              -7.044              -12.608             
N              17.579              1.816               -14.079             
C              16.967              3.054               -14.545             
C              16.379              2.72                -15.907             
O              17.107              2.357               -16.824             
C              17.989              4.195               -14.63              
C              17.37               5.553               -14.819             
C              16.614              6.131               -13.809             
C              17.541              6.243               -16.006             
C              16.04               7.382               -13.975             
C              16.966              7.5                 -16.189             
C              16.219              8.068               -15.177             
H              18.554              1.548               -14.264             
H              16.209              3.248               -13.945             
H              18.499              4.206               -13.784             
H              18.577              4.016               -15.404             
H              16.48               5.643               -12.949             
H              18.083              5.84                -16.744             
H              15.499              7.789               -13.235             
H              17.102              7.985               -17.067             
H              15.803              8.969               -15.294             
N              15.061              2.822               -16.017             
C              14.34               2.348               -17.178             
C              13.706              3.503               -17.959             
O              13.282              4.494               -17.359             
C              13.272              1.328               -16.719             
C              12.079              1.313               -17.634             
C              13.888              -0.063              -16.58              
H              14.595              3.272               -15.195             
H              14.993              1.886               -17.795             
H              12.954              1.619               -15.814             
H              11.239              1.183               -17.101             
H              12.017              2.182               -18.132             
H              12.164              0.564               -18.296             
H              14.209              -0.186              -15.642             
H              13.196              -0.75               -16.794             
H              14.655              -0.146              -17.214             
N              13.659              3.371               -19.28              
C              12.907              4.275               -20.129             
C              11.727              3.52                -20.737             
O              11.894              2.399               -21.209             
C              13.796              4.834               -21.233             
C              13.024              5.535               -22.305             
H              14.21               2.562               -19.65              
H              12.545              5.019               -19.568             
H              14.446              5.486               -20.834             
H              14.309              4.081               -21.655             
N              12.429              6.76                -22.104             
C              12.717              5.165               -23.57              
C              11.809              7.13                -23.212             
N              11.965              6.177               -24.115             
H              12.462              7.286               -21.255             
H              12.984              4.319               -24.022             
H              11.309              7.98                -23.344             
N              10.542              4.123               -20.716             
C              9.361               3.48                -21.268             
C              9.248               3.862               -22.738             
O              9.153               5.047               -23.071             
C              8.114               3.878               -20.464             
C              8.146               3.344               -19.044             
C              7.729               2.044               -18.763             
C              8.621               4.134               -17.992             
C              7.771               1.538               -17.475             
C              8.669               3.632               -16.7               
C              8.235               2.341               -16.451             
O              8.274               1.819               -15.17              
H              10.538              5.064               -20.284             
H              9.481               2.491               -21.212             
H              8.072               4.866               -20.425             
H              7.319               3.504               -20.919             
H              7.391               1.464               -19.509             
H              8.927               5.061               -18.176             
H              7.471               0.603               -17.289             
H              9.014               4.199               -15.952             
H              8.332               2.57                -14.516             
N              9.272               2.843               -23.598             
C              9.353               3.053               -25.045             
C              8.176               3.876               -25.559             
O              7.022               3.536               -25.327             
C              9.408               1.708               -25.802             
C              10.571              0.858               -25.309             
C              9.544               1.941               -27.311             
C              11.881              1.57                -25.327             
H              9.229               1.903               -23.159             
H              10.18               3.604               -25.203             
H              8.561               1.219               -25.613             
H              10.367              0.559               -24.376             
H              10.63               0.046               -25.892             
H              9.537               1.062               -27.781             
H              8.78                2.498               -27.627             
H              10.403              2.413               -27.494             
H              11.838              2.381               -24.738             
H              12.605              0.962               -24.993             
H              12.102              1.857               -26.262             
N              8.492               4.967               -26.252             
C              7.478               5.849               -26.8               
C              7.024               6.966               -25.879             
O              6.425               7.942               -26.335             
H              9.515               5.127               -26.363             
H              7.828               6.26                -27.673             
H              6.661               5.291               -27.073             
N              7.311               6.831               -24.584             
C              6.865               7.806               -23.586             
C              7.869               8.914               -23.328             
O              9.061               8.764               -23.613             
C              6.569               7.098               -22.259             
C              5.393               6.199               -22.307             
C              5.35                4.917               -22.783             
C              4.073               6.499               -21.844             
N              4.088               4.401               -22.629             
C              3.284               5.353               -22.062             
C              3.486               7.623               -21.254             
C              1.936               5.303               -21.727             
C              2.148               7.572               -20.92              
C              1.387               6.419               -21.156             
H              7.869               5.988               -24.348             
H              6.016               8.236               -23.942             
H              7.361               6.549               -22.01              
H              6.396               7.789               -21.563             
H              6.122               4.429               -23.184             
H              3.8                 3.479               -22.888             
H              4.021               8.446               -21.076             
H              1.398               4.473               -21.904             
H              1.718               8.369               -20.505             
H              0.419               6.422               -20.896             
N              7.38                10.026              -22.774             
C              8.23                11.143              -22.359             
C              9.362               10.663              -21.451             
O              9.173               9.77                -20.628             
C              7.387               12.209              -21.637             
C              8.113               13.545              -21.472             
H              6.342               10.03               -22.663             
H              8.658               11.515              -23.19              
H              6.558               12.365              -22.167             
H              7.154               11.864              -20.731             
O              9.287               13.599              -21.093             
N              7.4                 14.636              -21.748             
H              6.447               14.55               -22.037             
H              7.818               15.54               -21.665             
N              10.539              11.263              -21.598             
C              11.667              10.949              -20.728             
C              11.357              11.257              -19.27              
O              12.021              10.745              -18.362             
C              12.917              11.727              -21.154             
C              13.805              11.017              -22.159             
C              14.945              11.944              -22.619             
C              15.467              12.815              -21.49              
N              16.78               12.37               -20.93              
H              10.584              11.957              -22.367             
H              11.879              9.964               -20.813             
H              12.619              12.596              -21.555             
H              13.459              11.916              -20.331             
H              14.207              10.211              -21.737             
H              13.268              10.76               -22.955             
H              15.69               11.378              -22.961             
H              14.599              12.531              -23.345             
H              15.563              13.765              -21.828             
H              14.783              12.828              -20.743             
H              16.666              11.479              -20.495             
H              17.446              12.301              -21.671             
H              17.092              13.037              -20.256             
N              10.339              12.082              -19.034             
H              9.843               12.422              -19.872             
H              10.0899             12.3422             -18.0855            
H              18.3457             -1.08774            -9.82337            
