192
4.xyz
C              13.023              14.921              10.37               
O              12.888              13.743              10.225              
N              13.845              15.456              11.267              
C              14.501              14.655              12.271              
C              13.921              15.04               13.605              
O              13.82               16.198              13.869              
C              15.973              14.95               12.278              
C              16.696              14.554              11.034              
C              17.32               13.202              11.165              
N              17.851              12.738              9.915               
C              18.277              11.513              9.728               
N              18.235              10.67               10.697              
N              18.753              11.147              8.589               
H              13.967              16.488              11.177              
H              14.31               13.691              12.099              
H              16.098              15.938              12.413              
H              16.39               14.464              13.052              
H              16.056              14.533              10.262              
H              17.422              15.218              10.838              
H              18.056              13.259              11.841              
H              16.62               12.563              11.49               
H              17.899              13.383              9.145               
H              17.87               10.888              11.605              
H              18.586              9.715               10.56               
H              18.788              11.794              7.811               
H              19.1                10.211              8.443               
N              13.478              14.068              14.394              
C              13.051              14.312              15.773              
C              13.914              13.454              16.686              
O              13.764              12.25               16.682              
C              11.609              13.861              16.022              
C              11.231              14.03               17.46               
C              10.634              14.62               15.184              
H              13.46               13.124              13.953              
H              13.225              15.267              15.988              
H              11.558              12.884              15.81               
H              11.208              15.005              17.7                
H              10.323              13.635              17.629              
H              11.899              13.568              18.051              
H              10.719              14.344              14.222              
H              9.696               14.435              15.494              
H              10.812              15.606              15.256              
N              14.768              14.058              17.493              
C              15.649              13.268              18.321              
C              16.57               12.441              17.435              
O              17.016              11.401              17.828              
C              14.825              12.301              19.155              
C              14.268              12.91               20.405              
H              14.748              15.086              17.477              
H              16.231              13.901              18.835              
H              14.065              11.968              18.591              
H              15.41               11.525              19.405              
O              13.73               14.005              20.411              
N              14.395              12.182              21.475              
H              14.837              11.285              21.466              
H              14.037              12.523              22.366              
N              16.833              12.893              16.237              
C              17.675              12.158              15.321              
C              16.915              11.148              14.483              
O              17.38               10.745              13.465              
H              16.394              13.809              16.002              
H              18.153              12.811              14.701              
H              18.404              11.674              15.844              
N              15.691              10.84               14.87               
C              14.861              9.909               14.135              
C              14.256              10.511              12.896              
O              13.857              11.631              12.91               
C              13.787              9.352               15.012              
H              15.377              11.321              15.743              
H              15.432              9.109               13.865              
H              12.888              9.474               14.581              
H              13.938              8.371               15.168              
H              13.784              9.822               15.9                
N              14.19               9.755               11.819              
C              13.583              10.261              10.6                
C              12.082              10.21               10.791              
O              11.565              9.208               11.117              
C              13.964              9.391               9.394               
C              15.452              9.473               9.106               
C              13.208              9.807               8.173               
C              16.006              8.442               8.15                
H              14.591              8.808               11.912              
H              13.832              11.221              10.539              
H              13.74               8.443               9.617               
H              15.657              10.393              8.741               
H              15.949              9.392               9.984               
H              13.431              9.203               7.404               
H              12.221              9.76                8.343               
H              13.446              10.748              7.922               
H              15.549              8.529               7.266               
H              16.988              8.589               8.035               
H              15.847              7.527               8.519               
N              11.416              11.327              10.577              
C              9.935               11.385              10.567              
C              9.466               11.866              9.205               
O              9.653               13.04               8.842               
C              9.381               12.237              11.739              
C              7.839               12.323              11.724              
C              9.851               11.655              13.063              
H              12.005              12.171              10.414              
H              9.596               10.458              10.71               
H              9.719               13.17               11.623              
H              7.464               11.4                11.746              
H              7.536               12.834              12.524              
H              7.55                12.789              10.892              
H              9.692               10.668              13.065              
H              10.827              11.839              13.177              
H              9.34                12.079              13.811              
N              8.778               11.019              8.462               
C              8.193               11.442              7.21                
C              6.998               12.382              7.41                
O              6.139               12.111              8.175               
C              7.792               10.23               6.394               
S              9.112               9.104               5.903               
H              8.699               10.06               8.844               
H              8.893               11.947              6.679               
H              7.112               9.704               6.928               
H              7.33                10.558              5.554               
N              6.975               13.488              6.694               
C              5.931               14.489              6.826               
C              4.879               14.309              5.766               
O              5.134               13.747              4.772               
C              6.499               15.917              6.812               
C              7.233               16.209              8.095               
C              8.184               17.357              8.043               
O              9.077               17.385              7.213               
O              8.045               18.225              8.87                
H              7.773               13.585              6.021               
H              5.511               14.419              7.741               
H              7.133               15.972              6.078               
H              5.749               16.529              6.742               
H              6.555               16.407              8.8                 
H              7.753               15.395              8.346               
N              3.696               14.799              6.022               
C              2.577               14.521              5.198               
C              2.72                15.168              3.846               
O              2.888               16.328              3.751               
C              1.35                15.07               5.912               
C              0.036               14.896              5.2                 
C              -1.092              15.593              5.92                
C              -1.59               14.753              7.078               
N              -2.665              15.405              7.876               
H              3.654               15.406              6.879               
H              2.492               13.518              5.066               
H              1.287               14.618              6.812               
H              1.499               16.057              6.07                
H              0.11                15.273              4.271               
H              -0.178              13.916              5.133               
H              -0.764              16.461              6.276               
H              -1.844              15.737              5.287               
H              -1.938              13.873              6.718               
H              -0.81               14.543              7.69                
H              -2.796              16.341              7.552               
H              -3.515              14.891              7.769               
H              -2.4                15.418              8.84                
N              2.635               14.357              2.815               
C              2.516               14.758              1.433               
C              1.392               14.001              0.747               
O              0.427               13.711              1.33                
H              2.663               13.323              3.097               
H              2.33                15.747              1.379               
H              3.381               14.576              0.949               
N              1.567               13.674              -0.517              
C              0.644               12.821              -1.22               
C              0.831               11.4                -0.702              
O              1.797               11.138              -0.069              
C              0.907               12.839              -2.743              
O              2.176               12.289              -2.995              
C              0.887               14.252              -3.275              
H              2.423               14.083              -0.957              
H              -0.289              13.107              -1.015              
H              0.198               12.262              -3.197              
H              1.81                14.648              -3.24               
H              0.568               14.259              -4.227              
H              0.27                14.821              -2.723              
H              2.909               12.909              -2.681              
N              -0.142              10.529              -0.94               
C              -0.008              9.101               -0.517              
C              1.291               8.485               -1.047              
O              2.012               7.861               -0.309              
C              -1.291              8.302               -0.82               
O              -1.55               8.333               -2.213              
H              -0.97               10.893              -1.421              
H              0.025               9.089               0.485               
H              -1.155              7.367               -0.532              
H              -2.044              8.722               -0.337              
H              -0.746              8.008               -2.709              
N              1.642               8.688               -2.36               
H              0.926               9.234               -2.885              
H              2.48298             8.34245             -2.73053            
H              9.5744              9.71535             4.83702             
H              12.5354             15.5748             9.74103             
