277
6.xyz
C              -8.677              7.663               8.152               
O              -8.896              8.879               7.964               
N              -9.304              6.713               7.486               
C              -10.275             7.022               6.414               
C              -11.537             7.74                6.83                
O              -12.138             8.445               5.987               
C              -10.576             5.672               5.811               
C              -10.198             4.682               6.828               
C              -8.993              5.273               7.511               
H              -9.796              7.537               5.657               
H              -11.56              5.596               5.575               
H              -10.051             5.536               4.954               
H              -10.941             4.537               7.49                
H              -9.966              3.799               6.408               
H              -8.908              4.949               8.447               
H              -8.157              5.085               7.004               
N              -11.932             7.652               8.109               
C              -13.146             8.366               8.554               
C              -12.917             9.881               8.634               
O              -13.802             10.655              8.269               
C              -13.749             7.862               9.864               
C              -13.754             6.385               10.068              
C              -14.347             5.57                8.956               
C              -14.204             4.06                9.301               
N              -14.191             3.128               8.118               
H              -11.349             7.077               8.718               
H              -13.884             8.186               7.892               
H              -13.235             8.294               10.621              
H              -14.702             8.201               9.91                
H              -12.792             6.067               10.224              
H              -14.26              6.169               10.933              
H              -15.307             5.764               8.868               
H              -13.857             5.73                8.119               
H              -13.346             3.938               9.825               
H              -14.97              3.804               9.913               
H              -15.121             3.033               7.772               
H              -13.601             3.511               7.412               
H              -13.843             2.241               8.41                
N              -11.712             10.277              9.034               
C              -11.474             11.672              9.295               
C              -10.616             12.345              8.263               
O              -10.626             13.586              8.162               
C              -10.827             11.841              10.676              
O              -9.604              11.13               10.821              
H              -11.012             9.532               9.132               
H              -12.378             12.148              9.311               
H              -10.652             12.818              10.83               
H              -11.473             11.516              11.374              
H              -9.449              10.57               10.009              
N              -9.744              11.579              7.604               
C              -8.818              12.201              6.662               
C              -9.531              12.682              5.353               
O              -10.112             11.891              4.631               
C              -7.674              11.264              6.37                
C              -6.46               11.97               5.829               
O              -6.487              13.196              5.59                
O              -5.416              11.299              5.675               
H              -9.783              10.58               7.808               
H              -8.448              13.032              7.097               
H              -7.423              10.801              7.218               
H              -7.98               10.594              5.698               
N              -9.457              13.982              5.068               
C              -10.064             14.543              3.875               
C              -9.14               14.535              2.671               
O              -7.957              14.921              2.777               
C              -10.583             15.989              4.106               
C              -11.675             16.03               5.234               
C              -12.299             17.412              5.292               
N              -13.504             17.517              6.124               
C              -14.275             18.62               6.216               
N              -15.337             18.638              7.013               
N              -13.975             19.725              5.549               
H              -8.933              14.547              5.768               
H              -10.896             14.002              3.647               
H              -9.837              16.546              4.401               
H              -11.002             16.306              3.283               
H              -12.37              15.369              5.015               
H              -11.237             15.836              6.094               
H              -11.605             18.054              5.645               
H              -12.531             17.689              4.349               
H              -13.777             16.715              6.664               
H              -15.568             17.843              7.57                
H              -15.913             19.46               7.057               
H              -13.142             19.733              4.981               
H              -14.554             20.527              5.606               
N              -9.625              14.016              1.546               
C              -8.828              14.035              0.297               
C              -9.566              14.936              -0.685              
O              -10.758             15.219              -0.508              
C              -8.589              12.58               -0.314              
C              -9.878              11.776              -0.411              
C              -10.834             12.1                -1.399              
C              -10.202             10.782              0.512               
C              -12.039             11.419              -1.491              
C              -11.468             10.103              0.485               
C              -12.372             10.403              -0.556              
O              -13.6               9.785               -0.526              
H              -10.568             13.613              1.609               
H              -7.95               14.442              0.501               
H              -8.217              12.707              -1.214              
H              -7.964              12.118              0.287               
H              -10.631             12.839              -2.043              
H              -9.549              10.52               1.218               
H              -12.693             11.634              -2.222              
H              -11.689             9.448               1.179               
H              -13.543             8.97                0.048               
N              -8.909              15.303              -1.779              
C              -9.571              16.01               -2.875              
C              -9.733              15.127              -4.168              
O              -8.853              14.387              -4.535              
C              -8.785              17.272              -3.226              
C              -8.779              18.312              -2.098              
C              -10.198             18.826              -1.806              
C              -10.217             19.618              -0.472              
N              -11.579             20.076              0.009               
H              -7.902              15.05               -1.79               
H              -10.497             16.29               -2.583              
H              -7.844              17.017              -3.413              
H              -9.199              17.689              -4.027              
H              -8.416              17.891              -1.271              
H              -8.21               19.083              -2.369              
H              -10.474             19.435              -2.528              
H              -10.807             18.058              -1.715              
H              -9.798              19.037              0.248               
H              -9.621              20.433              -0.579              
H              -12.074             19.287              0.36                
H              -11.452             20.752              0.728               
H              -12.069             20.477              -0.759              
N              -10.877             15.263              -4.818              
C              -11.076             14.62               -6.071              
C              -11.882             15.526              -7.022              
O              -12.527             16.5                -6.595              
C              -11.726             13.281              -5.904              
C              -13.225             13.305              -5.549              
C              -13.673             13.498              -4.213              
C              -14.191             13.149              -6.537              
C              -15.022             13.476              -3.918              
C              -15.548             13.142              -6.253              
C              -15.974             13.318              -4.944              
O              -17.326             13.275              -4.636              
H              -11.58              15.859              -4.341              
H              -10.184             14.45               -6.508              
H              -11.638             12.758              -6.758              
H              -11.263             12.774              -5.169              
H              -13                 13.648              -3.498              
H              -13.894             13.038              -7.494              
H              -15.34              13.573              -2.97               
H              -16.216             13.011              -6.984              
H              -17.846             13.19               -5.482              
N              -11.788             15.211              -8.298              
C              -12.444             15.933              -9.359              
C              -13.17              14.975              -10.256             
O              -13.108             13.81               -10.085             
C              -11.465             16.749              -10.198             
C              -10.428             15.987              -10.942             
C              -9.571              16.965              -11.69              
C              -8.207              16.412              -11.996             
N              -7.402              17.198              -12.949             
H              -11.176             14.364              -8.48               
H              -13.108             16.576              -8.958              
H              -12.01              17.291              -10.859             
H              -11.006             17.406              -9.576              
H              -9.86               15.48               -10.304             
H              -10.861             15.372              -11.59              
H              -10.022             17.201              -12.554             
H              -9.463              17.795              -11.139             
H              -7.686              16.321              -11.121             
H              -8.312              15.461              -12.359             
H              -7.094              18.046              -12.513             
H              -6.603              16.666              -13.237             
H              -7.955              17.424              -13.754             
N              -13.919             15.546              -11.186             
C              -14.56              14.809              -12.258             
C              -13.937             15.216              -13.621             
O              -13.9               16.371              -13.938             
C              -16.046             15.086              -12.223             
C              -16.756             14.605              -10.974             
C              -17.295             13.2                -11.117             
N              -17.938             12.638              -9.952              
C              -18.373             11.386              -9.858              
N              -18.283             10.598              -10.876             
N              -18.934             10.932              -8.764              
H              -14.01              16.589              -11.08              
H              -14.405             13.829              -12.131             
H              -16.187             16.075              -12.294             
H              -16.472             14.636              -13.01              
H              -16.117             14.619              -10.202             
H              -17.525             15.216              -10.773             
H              -17.954             13.2                -11.893             
H              -16.52              12.6                -11.391             
H              -18.07              13.236              -9.146              
H              -17.876             10.876              -11.749             
H              -18.635             9.64                -10.812             
H              -19.019             11.549              -7.966              
H              -19.273             9.999               -8.706              
N              -13.436             14.247              -14.387             
C              -12.808             14.483              -15.697             
C              -13.617             14.062              -16.939             
O              -13.319             14.511              -18.006             
C              -11.337             14                  -15.781             
C              -10.786             14.017              -17.19              
C              -10.433             14.871              -14.974             
H              -13.527             13.286              -13.974             
H              -12.627             15.491              -15.777             
H              -11.319             13.046              -15.465             
H              -11.313             14.657              -17.752             
H              -9.827              14.304              -17.175             
H              -10.849             13.101              -17.589             
H              -10.566             14.692              -13.994             
H              -9.474              14.686              -15.211             
H              -10.632             15.839              -15.158             
N              -14.547             13.152              -16.831             
C              -15.515             12.95               -17.876             
C              -16.721             12.421              -17.176             
O              -17.331             11.488              -17.62              
C              -14.999             11.953              -18.909             
C              -14.529             12.601              -20.204             
H              -14.529             12.6                -15.948             
H              -15.747             13.839              -18.243             
H              -14.23              11.452              -18.511             
H              -15.736             11.312              -19.127             
O              -13.34              12.751              -20.444             
N              -15.461             12.925              -21.067             
H              -16.429             12.752              -20.862             
H              -15.218             13.351              -21.944             
N              -17.011             12.968              -16.02              
C              -17.97              12.372              -15.131             
C              -17.265             11.295              -14.355             
O              -17.793             10.74               -13.446             
H              -16.497             13.85               -15.809             
H              -18.328             13.06               -14.503             
H              -18.72              11.973              -15.655             
N              -16.038             11.044              -14.743             
C              -15.147             10.062              -14.088             
C              -14.502             10.667              -12.823             
O              -14.005             11.751              -12.882             
C              -14.084             9.556               -15.055             
H              -15.719             11.604              -15.577             
H              -15.693             9.266               -13.816             
H              -14.09              8.557               -15.064             
H              -14.279             9.898               -15.974             
H              -13.185             9.881               -14.763             
N              -14.522             9.925               -11.717             
C              -13.81              10.364              -10.469             
C              -12.322             10.32               -10.687             
O              -11.762             9.332               -11.182             
C              -14.157             9.435               -9.291              
C              -15.702             9.455               -9.045              
C              -13.422             9.866               -8.016              
C              -16.201             8.254               -8.2                
H              -15.049             9.045               -11.774             
H              -14.072             11.32               -10.345             
H              -13.912             8.511               -9.537              
H              -15.929             10.292              -8.571              
H              -16.152             9.426               -9.925              
H              -13.649             9.236               -7.278              
H              -12.44              9.85                -8.183              
H              -13.707             10.789              -7.77               
H              -15.746             8.282               -7.318              
H              -17.184             8.338               -8.088              
H              -15.974             7.417               -8.683              
N              -11.66              11.4                -10.341             
C              -10.184             11.392              -10.481             
C              -9.724              12.225              -11.696             
C              -8.205              12.234              -11.783             
C              -10.351             11.699              -12.991             
H              -12.193             12.188              -9.994              
H              -9.898              10.444              -10.611             
H              -10.014             13.163              -11.545             
H              -7.818              12.318              -10.865             
H              -7.889              11.382              -12.2               
H              -7.907              13.008              -12.342             
H              -10.132             10.73               -13.088             
H              -11.341             11.822              -12.946             
H              -9.979              12.211              -13.763             
H              -9.72943            11.7676             -9.56181            
H              -7.93295            7.34262             8.81579             
