182
5.xyz
C              -8.965              0.207               4.295               
C              -7.966              -0.578              5.154               
O              -7.081              -0.007              5.774               
C              -10.219             0.501               5.114               
C              -11.026             1.714               4.672               
C              -10.615             2.489               3.611               
C              -12.224             2.06                5.342               
C              -11.362             3.593               3.176               
C              -12.955             3.203               4.998               
C              -12.595             3.925               3.881               
O              -13.303             5.074               3.536               
H              -8.517              1.05                3.993               
H              -10.821             -0.301              5.069               
H              -9.946              0.648               6.069               
H              -9.761              2.271               3.128               
H              -12.552             1.471               6.076               
H              -11.085             4.146               2.416               
H              -13.728             3.486               5.562               
H              -13.324             5.15                2.544               
N              -8.149              -1.891              5.215               
C              -7.264              -2.738              6.013               
C              -5.839              -2.742              5.487               
O              -4.929              -2.974              6.288               
H              -8.947              -2.252              4.667               
H              -7.267              -2.411              6.972               
H              -7.623              -3.685              6.015               
N              -5.642              -2.455              4.204               
C              -4.319              -2.357              3.609               
C              -3.55               -1.113              4.105               
O              -2.39               -1.014              3.879               
C              -4.318              -2.259              2.07                
C              -4.89               -3.46               1.327               
H              -6.525              -2.306              3.659               
H              -3.788              -3.16               3.912               
H              -4.85               -1.443              1.811               
H              -3.365              -2.123              1.769               
O              -4.711              -4.593              1.683               
N              -5.55               -3.17               0.243               
H              -5.666              -2.23               -0.079              
H              -5.97               -3.915              -0.31               
N              -4.249              -0.232              4.804               
C              -3.783              1.062               5.289               
C              -3.993              1.259               6.82                
O              -4.628              2.16                7.313               
C              -4.495              2.18                4.556               
C              -4.714              2.039               3.08                
C              -5.722              3.056               2.632               
C              -3.404              2.28                2.446               
H              -5.252              -0.567              4.999               
H              -2.79               1.143               5.107               
H              -5.401              2.298               4.989               
H              -3.967              3.027               4.708               
H              -5.053              1.121               2.879               
H              -5.39               3.982               2.831               
H              -5.879              2.974               1.644               
H              -6.592              2.914               3.112               
H              -2.722              1.61                2.768               
H              -3.472              2.201               1.443               
H              -3.064              3.204               2.666               
N              -3.213              0.359               7.554               
C              -3.408              0.427               8.99                
C              -3.04               1.78                9.621               
O              -3.682              2.101               10.569              
C              -2.485              -0.655              9.521               
C              -1.349              -0.617              8.625               
C              -2.042              -0.622              7.33                
H              -4.369              0.179               9.239               
H              -2.222              -0.453              10.473              
H              -2.949              -1.549              9.506               
H              -0.814              0.212               8.747               
H              -0.772              -1.42               8.732               
H              -1.486              -0.274              6.58                
H              -2.424              -1.511              7.086               
N              -2.017              2.485               9.16                
C              -1.7                3.804               9.704               
C              -2.327              5.015               9.018               
O              -1.764              6.086               9.034               
C              -0.196              3.984               9.854               
C              0.416               2.866               10.587              
O              -0.147              2.443               11.561              
O              1.44                2.384               10.16               
H              -1.475              2.034               8.402               
H              -2.035              3.811               10.679              
H              0.191               4.041               8.939               
H              -0.044              4.836               10.345              
N              -3.537              4.748               8.384               
C              -4.239              5.898               7.806               
C              -5.568              5.945               8.494               
O              -5.987              4.908               9.063               
C              -4.443              5.676               6.292               
S              -2.936              5.589               5.271               
H              -3.823              3.799               8.377               
H              -3.728              6.713               8.032               
H              -4.951              4.816               6.175               
H              -5.012              6.431               5.947               
N              -6.338              7.022               8.461               
C              -7.611              7.204               9.103               
C              -7.499              8.149               10.367              
C              -6.365              7.72                11.274              
H              -5.894              7.811               7.866               
H              -7.9                6.298               9.463               
H              -7.33               9.061               10.034              
H              -8.354              8.086               10.852              
O              -5.191              8.087               11.065              
N              -6.67               6.87                12.214              
H              -7.607              6.522               12.316              
H              -5.964              6.545               12.859              
C              -2.486              14.961              -1.329              
C              -1.436              14.166              -0.663              
O              -0.395              13.913              -1.285              
H              -2.244              15.914              -1.359              
H              -3.363              14.816              -0.906              
N              -1.672              13.741              0.58                
C              -0.694              12.864              1.285               
C              -0.854              11.474              0.735               
O              -1.878              11.209              0.03                
C              -0.962              12.817              2.808               
O              -2.208              12.166              3.056               
C              -1.078              14.266              3.398               
H              -2.552              14.054              1.002               
H              0.216               13.201              1.077               
H              -0.221              12.274              3.251               
H              -1.097              14.914              2.644               
H              -1.918              14.326              3.928               
H              -0.289              14.435              3.98                
H              -2.975              12.794              2.879               
N              0.068               10.588              1.034               
C              -0.034              9.203               0.503               
C              -1.208              8.476               1.07                
O              -1.799              7.67                0.412               
C              1.247               8.472               0.606               
O              1.659               8.497               1.929               
H              0.834               10.902              1.635               
H              -0.146              9.281               -0.498              
H              1.12                7.529               0.32                
H              1.933               8.917               0.041               
H              1.029               7.963               2.501               
N              -1.561              8.758               2.336               
C              -2.734              8.202               2.945               
C              -3.995              8.709               2.251               
O              -4.906              7.957               1.911               
C              -2.827              8.574               4.455               
S              -2.047              7.397               5.634               
H              -0.903              9.412               2.818               
H              -2.712              7.199               2.844               
H              -2.391              9.467               4.575               
H              -3.798              8.648               4.689               
N              -4.039              10.008              2.005               
C              -5.23               10.613              1.37                
C              -5.402              10.062              -0.051              
O              -6.504              9.879               -0.484              
C              -5.137              12.147              1.377               
C              -5.151              12.678              2.792               
C              -4.772              14.161              2.953               
O              -4.276              14.796              2.01                
O              -4.913              14.629              4.094               
H              -3.209              10.549              2.28                
H              -6.041              10.399              1.914               
H              -4.29               12.391              0.969               
H              -5.919              12.491              0.916               
H              -6.069              12.577              3.16                
H              -4.501              12.158              3.335               
N              -4.308              9.888               -0.762              
C              -4.371              9.374               -2.127              
C              -4.944              7.96                -2.079              
O              -5.902              7.615               -2.851              
C              -2.945              9.36                -2.773              
C              -2.333              10.761              -2.971              
O              -1.165              10.9                -3.184              
N              -3.192              11.814              -2.932              
H              -3.422              10.139              -0.288              
H              -5.024              9.937               -2.627              
H              -2.345              8.835               -2.176              
H              -3.018              8.919               -3.663              
H              -4.16               11.626              -2.773              
H              -2.853              12.73               -3.058              
N              -4.465              7.161               -1.154              
H              -3.796              7.606               -0.485              
H              -4.72243            6.16598             -1.08253            
H              -2.51148            14.5767             -2.32548            
H              -9.22486            -0.363667           3.43682             
H              -8.37652            7.53362             8.42007             
