360
0.xyz
N              -12.31              58.576              32.136              
C              -11.051             59.308              32                  
C              -9.857              58.446              31.603              
O              -8.75               58.953              31.393              
C              -10.724             60.278              33.121              
C              -11.864             61.255              33.336              
C              -11.528             62.387              34.293              
C              -12.727             63.306              34.511              
N              -12.507             64.676              33.984              
H              -12.131             57.591              32.154              
H              -11.174             60.034              31.292              
H              -10.59              59.766              33.953              
H              -9.917              60.788              32.872              
H              -12.126             61.654              32.445              
H              -12.663             60.753              33.698              
H              -11.264             62.001              35.17               
H              -10.785             62.925              33.911              
H              -13.53              62.9                34.057              
H              -12.918             63.357              35.5                
H              -12.85              64.732              33.046              
H              -12.994             65.336              34.556              
H              -11.529             64.884              33.994              
H              -12.768             58.84               32.987              
H              -12.911             58.785              31.363              
N              -10.095             57.14               31.537              
C              -9.041              56.253              31.111              
C              -9.277              55.915              29.645              
O              -10.398             55.569              29.283              
C              -8.919              54.972              31.958              
C              -7.485              54.834              32.543              
C              -7.203              53.513              33.232              
O              -8.057              52.646              33.377              
O              -5.933              53.42               33.637              
H              -11.04              56.846              31.802              
H              -8.153              56.696              31.21               
H              -9.526              55.046              32.706              
H              -9.065              54.212              31.38               
H              -6.852              54.928              31.791              
H              -7.367              55.556              33.207              
N              -8.242              56.015              28.794              
C              -8.415              55.649              27.394              
C              -9.047              54.275              27.152              
O              -9.054              53.382              28.007              
C              -7.101              55.72               26.617              
O              -6.279              54.595              26.891              
C              -6.399              56.987              27.049              
H              -7.368              56.355              29.205              
H              -9.014              56.351              26.95               
H              -7.312              55.726              25.609              
H              -5.438              56.792              27.267              
H              -6.433              57.669              26.312              
H              -6.845              57.368              27.864              
H              -5.902              54.648              27.824              
N              -9.61               54.136              25.941              
C              -10.266             52.904              25.555              
C              -9.274              51.749              25.57               
O              -9.567              50.668              26.078              
C              -11.032             53.038              24.25               
H              -9.53               54.97               25.333              
H              -11.001             52.702              26.212              
H              -10.871             53.944              23.858              
H              -10.722             52.339              23.606              
H              -12.01              52.92               24.421              
N              -8.067              52.047              25.068              
C              -6.989              51.084              25.02               
C              -6.611              50.629              26.414              
O              -6.484              49.44               26.689              
C              -5.8                51.67               24.298              
H              -7.984              53.028              24.721              
H              -7.291              50.28               24.489              
H              -5.656              52.617              24.591              
H              -4.979              51.135              24.505              
H              -5.96               51.654              23.309              
N              -6.449              51.594              27.302              
C              -6.083              51.271              28.663              
C              -7.18               50.489              29.338              
O              -6.937              49.578              30.137              
C              -5.732              52.538              29.437              
H              -6.6                52.551              26.952              
H              -5.243              50.71               28.651              
H              -6.091              52.47               30.367              
H              -4.739              52.643              29.47               
H              -6.136              53.329              28.98               
N              -8.408              50.846              29.004              
C              -9.525              50.139              29.599              
C              -9.543              48.671              29.144              
O              -9.837              47.753              29.91               
C              -10.839             50.882              29.333              
H              -8.491              51.612              28.335              
H              -9.432              50.155              30.601              
H              -11.47              50.715              30.088              
H              -10.655             51.86               29.258              
H              -11.239             50.549              28.481              
N              -9.199              48.411              27.881              
C              -9.18               47.015              27.433              
C              -8.175              46.217              28.255              
O              -8.461              45.145              28.764              
C              -8.882              46.889              25.928              
C              -8.69               45.472              25.392              
C              -7.49               44.769              25.533              
C              -9.713              44.863              24.661              
C              -7.31               43.483              25.013              
C              -9.566              43.581              24.125              
C              -8.364              42.894              24.309              
H              -8.968              49.21               27.301              
H              -10.086             46.634              27.63               
H              -9.645              47.294              25.432              
H              -8.044              47.394              25.74               
H              -6.727              45.198              26.026              
H              -10.574             45.357              24.518              
H              -6.449              43.005              25.144              
H              -10.322             43.162              23.611              
H              -8.253              41.972              23.936              
N              -6.97               46.733              28.423              
C              -5.983              45.967              29.189              
C              -6.433              45.584              30.605              
O              -6.255              44.433              31.013              
C              -4.674              46.759              29.312              
C              -4.037              47.138              27.965              
C              -2.64               47.706              28.153              
O              -1.983              47.627              29.166              
O              -2.169              48.269              27.081              
H              -6.797              47.643              28.005              
H              -5.745              45.117              28.676              
H              -4.872              47.596              29.787              
H              -4.027              46.199              29.794              
H              -3.962              46.327              27.429              
H              -4.588              47.829              27.554              
N              -6.976              46.563              31.35               
C              -7.435              46.391              32.731              
C              -8.553              45.37               32.918              
O              -8.603              44.628              33.917              
C              -7.805              47.752              33.289              
H              -7.044              47.484              30.842              
H              -6.635              46.1                33.3                
H              -8.729              47.997              32.994              
H              -7.774              47.726              34.289              
H              -7.159              48.44               32.956              
N              -9.448              45.3                31.924              
C              -10.547             44.329              32.032              
C              -10.212             42.942              31.505              
O              -10.78              41.969              31.982              
C              -11.783             44.747              31.194              
C              -12.487             46.04               31.658              
C              -13.716             46.41               30.832              
H              -9.308              45.933              31.145              
H              -10.778             44.24               33.021              
H              -11.492             44.881              30.244              
H              -12.456             44.003              31.228              
H              -12.768             45.918              32.612              
H              -11.826             46.792              31.604              
O              -14.836             46.511              31.351              
N              -13.533             46.634              29.542              
H              -14.306             46.87               28.934              
H              -12.585             46.565              29.161              
N              -9.345              42.84               30.481              
C              -9.109              41.542              29.841              
C              -7.734              40.867              29.891              
O              -7.623              39.701              29.453              
C              -9.549              41.71               28.358              
C              -10.96              42.176              28.172              
H              -8.888              43.714              30.205              
H              -9.802              40.866              30.247              
H              -8.93               42.373              27.918              
H              -9.44               40.822              27.895              
N              -12.047             41.436              28.68               
C              -11.448             43.3                27.537              
C              -13.148             42.127              28.365              
N              -12.823             43.227              27.669              
H              -11.994             40.595              29.161              
H              -10.926             43.995              27.09               
H              -14.082             41.864              28.61               
N              -6.691              41.569              30.382              
C              -5.353              40.968              30.406              
C              -4.956              40.275              31.701              
O              -5.1                40.849              32.773              
C              -4.22               41.963              30.022              
C              -4.22               42.477              28.574              
S              -4.157              41.173              27.269              
C              -2.641              40.262              27.691              
H              -6.913              42.508              30.717              
H              -5.314              40.272              29.653              
H              -4.276              42.765              30.643              
H              -3.327              41.512              30.198              
H              -5.057              43.068              28.44               
H              -3.425              43.127              28.46               
H              -2.438              40.404              28.656              
H              -2.787              39.293              27.511              
H              -1.892              40.605              27.13               
N              -4.417              39.042              31.598              
C              -3.9                38.343              32.784              
C              -2.714              37.474              32.404              
O              -2.863              36.263              32.273              
C              -4.887              37.554              33.655              
C              -4.164              37.069              34.891              
O              -3.095              37.531              35.251              
O              -4.786              36.099              35.53               
H              -4.403              38.652              30.647              
H              -3.565              39.047              33.415              
H              -5.608              38.159              33.92               
H              -5.198              36.784              33.14               
N              -1.555              38.107              32.175              
C              -0.323              37.428              31.792              
C              0.393               36.809              33                  
O              1.4                 36.142              32.862              
C              0.681               38.38               31.139              
O              0.092               39.199              30.151              
H              -1.616              39.15               32.298              
H              -0.56               36.676              31.161              
H              1.079               38.963              31.851              
H              1.41                37.835              30.718              
H              -0.194              38.636              29.375              
N              -0.086              37.009              34.202              
C              0.64                36.45               35.329              
C              0.5                 34.944              35.523              
O              1.333               34.363              36.214              
C              0.194               37.185              36.581              
O              -1.089              36.696              36.926              
H              -0.946              37.549              34.275              
H              1.637               36.651              35.191              
H              0.822               36.991              37.312              
H              0.132               38.146              36.387              
H              -1.763              37.037              36.272              
N              -0.545              34.322              34.939              
C              -0.803              32.881              35.063              
C              -1.028              32.246              33.721              
O              -1.547              32.904              32.832              
C              -2.057              32.538              35.924              
O              -3.207              33.141              35.381              
C              -1.902              33.067              37.332              
H              -1.16               34.963              34.386              
H              0.006               32.458              35.496              
H              -2.177              31.521              35.914              
H              -2.041              32.326              37.996              
H              -0.981              33.448              37.458              
H              -2.578              33.789              37.506              
H              -3.725              33.639              36.091              
N              -0.687              30.96               33.585              
C              -0.879              30.256              32.314              
C              -2.308              29.775              32.12               
O              -2.709              29.465              30.989              
C              0.079               29.083              32.123              
O              -0.356              27.973              32.9                
H              -0.289              30.521              34.43               
H              -0.663              30.905              31.566              
H              0.086               28.824              31.168              
H              0.983               29.352              32.425              
H              -0.864              28.304              33.693              
N              -3.051              29.712              33.234              
C              -4.433              29.274              33.188              
C              -5.107              29.43               34.525              
O              -4.442              29.645              35.508              
C              -4.547              27.813              32.787              
H              -2.559              29.996              34.098              
H              -4.928              29.834              32.505              
H              -3.65               27.471              32.507              
H              -4.878              27.277              33.564              
H              -5.189              27.723              32.025              
N              -6.432              29.316              34.517              
C              -7.252              29.407              35.692              
C              -6.839              28.327              36.675              
O              -6.787              27.148              36.322              
C              -8.735              29.257              35.348              
H              -6.829              29.15               33.55               
H              -7.115              30.302              36.126              
H              -9.278              29.349              36.181              
H              -8.997              29.967              34.697              
H              -8.891              28.358              34.944              
N              -6.56               28.797              37.89               
C              -6.132              28.029              39.034              
C              -7.17               27.022              39.513              
O              -6.917              25.821              39.558              
C              -5.783              28.973              40.185              
O              -6.916              29.749              40.578              
H              -6.69               29.864              37.946              
H              -5.297              27.507              38.774              
H              -5.479              28.435              40.964              
H              -5.061              29.591              39.889              
H              -7.555              29.167              41.075              
N              -8.335              27.528              39.892              
C              -9.423              26.749              40.435              
C              -10.742             27.297              39.986              
O              -10.775             28.26               39.235              
C              -9.402              26.994              41.933              
O              -9.386              28.406              42.18               
H              -8.399              28.578              39.758              
H              -9.336              25.805              40.087              
H              -10.216             26.612              42.341              
H              -8.584              26.598              42.32               
H              -10.226             28.808              41.825              
N              -11.815             26.7                40.514              
C              -13.18              27.09               40.192              
C              -13.544             28.456              40.755              
O              -14.593             29.016              40.428              
C              -14.15              26.047              40.722              
O              -14.053             26.03               42.136              
H              -11.584             25.926              41.181              
H              -13.262             27.139              39.183              
H              -15.067             26.296              40.464              
H              -13.897             25.162              40.371              
H              -13.797             26.939              42.463              
N              -12.668             28.981              41.609              
C              -12.869             30.274              42.254              
C              -12.16              31.461              41.585              
O              -12.293             32.631              42.029              
C              -12.457             30.197              43.734              
C              -13.366             31.042              44.582              
H              -11.824             28.386              41.777              
H              -13.87              30.476              42.217              
H              -12.524             29.254              44.023              
H              -11.531             30.534              43.813              
O              -14.596             30.82               44.618              
N              -12.756             32.023              45.242              
H              -11.777             32.173              45.162              
H              -13.3               32.63               45.838              
N              -11.399             31.153              40.535              
C              -10.671             32.194              39.822              
C              -11.522             33.42               39.492              
O              -11.14              34.54               39.837              
C              -9.985              31.597              38.585              
C              -9.324              32.596              37.668              
C              -10.03              33.238              36.648              
C              -7.961              32.87               37.816              
C              -9.379              34.134              35.793              
C              -7.298              33.782              36.994              
C              -8.018              34.404              35.971              
O              -7.369              35.285              35.142              
H              -11.375             30.155              40.286              
H              -9.898              32.501              40.409              
H              -9.287              30.95               38.901              
H              -10.678             31.098              38.058              
H              -11                 33.06               36.525              
H              -7.445              32.398              38.534              
H              -9.885              34.582              35.057              
H              -6.34               33.985              37.13               
H              -6.429              35.402              35.458              
N              -12.698             33.21               38.861              
C              -13.553             34.346              38.502              
C              -14.015             35.25               39.64               
O              -14.075             36.484              39.538              
C              -14.749             33.933              37.636              
S              -14.211             33.428              35.987              
H              -12.922             32.231              38.668              
H              -13.03              34.928              37.832              
H              -15.194             33.169              38.066              
H              -15.347             34.709              37.544              
N              -14.41              34.6                40.723              
C              -14.893             35.319              41.868              
C              -15.365             34.343              42.954              
C              -16.752             33.74               42.725              
H              -14.34              33.569              40.666              
H              -15.658             35.895              41.569              
H              -14.702             33.59               43.011              
H              -15.377             34.831              43.833              
O              -17.605             34.239              41.961              
N              -16.994             32.651              43.441              
H              -16.325             32.275              44.072              
H              -17.889             32.185              43.345              
H              -14.1747            34.5426             35.3051             
H              -14.1138            35.9926             42.2292             
