319
2.xyz
C              -3.033              22.614              22.568              
C              -2.697              21.111              22.35               
O              -2.046              20.704              21.343              
C              -4.195              23.146              21.71               
O              -4.324              24.584              21.951              
C              -5.445              22.444              22.052              
H              -3.165              22.751              23.545              
H              -3.974              23.02               20.73               
H              -6.249              23.038              21.901              
H              -5.563              21.615              21.486              
H              -5.449              22.159              23.022              
H              -3.626              25.074              21.429              
N              -3.205              20.279              23.285              
C              -3.038              18.829              23.178              
C              -4.447              18.203              23.204              
O              -4.947              17.893              24.277              
C              -2.192              18.281              24.329              
C              -0.784              18.857              24.283              
C              0.073               18.265              25.364              
C              1.41                18.968              25.44               
N              2.265               18.388              26.475              
H              -3.704              20.749              24.054              
H              -2.613              18.61               22.31               
H              -2.611              18.547              25.178              
H              -2.134              17.303              24.235              
H              -0.382              18.652              23.39               
H              -0.837              19.848              24.405              
H              -0.388              18.366              26.241              
H              0.233               17.302              25.168              
H              1.864               18.895              24.545              
H              1.252               19.942              25.638              
H              2.629               19.112              27.067              
H              1.738               17.744              27.037              
H              3.033               17.897              26.053              
N              -5.045              18.001              22.076              
C              -6.383              17.49               22.09               
C              -6.47               16.05               22.592              
O              -5.531              15.274              22.572              
C              -6.799              17.576              20.601              
C              -5.876              18.591              19.969              
C              -4.591              18.34               20.711              
H              -7.002              18.087              22.639              
H              -6.698              16.68               20.158              
H              -7.757              17.868              20.521              
H              -5.775              18.409              19.002              
H              -6.211              19.507              20.13               
H              -4.081              17.578              20.314              
H              -4.011              19.156              20.728              
N              -7.717              15.743              22.969              
C              -8.157              14.39               23.206              
C              -9.055              13.983              22.044              
O              -9.996              14.696              21.733              
C              -8.92               14.308              24.524              
O              -8.036              14.657              25.603              
C              -9.474              12.933              24.788              
H              -8.341              16.581              23.075              
H              -7.365              13.785              23.215              
H              -9.683              14.984              24.514              
H              -10.457             12.987              24.993              
H              -9.345              12.345              23.983              
H              -9.004              12.513              25.571              
H              -7.081              14.505              25.332              
N              -8.737              12.839              21.438              
C              -9.559              12.285              20.368              
C              -10.296             11.068              20.925              
O              -9.668              10.179              21.529              
C              -8.655              11.881              19.167              
O              -8.045              13.091              18.7                
C              -9.465              11.28               18.041              
H              -7.871              12.388              21.788              
H              -10.234             12.964              20.098              
H              -7.934              11.265              19.503              
H              -8.854              10.941              17.32               
H              -10.018             10.515              18.384              
H              -10.077             11.973              17.648              
H              -8.738              13.699              18.299              
N              -11.602             11.012              20.718              
C              -12.425             9.882               21.169              
C              -13.067             9.287               19.936              
O              -13.735             9.98                19.182              
C              -13.487             10.352              22.182              
C              -12.875             11.104              23.337              
C              -14.305             9.135               22.643              
C              -13.883             11.866              24.154              
H              -12                 11.832              20.21               
H              -11.792             9.207               21.523              
H              -14.114             10.967              21.698              
H              -12.402             10.454              23.932              
H              -12.202             11.751              22.977              
H              -15.042             9.444               23.238              
H              -14.685             8.676               21.845              
H              -13.709             8.51                23.139              
H              -14.556             11.231              24.533              
H              -13.418             12.342              24.901              
H              -14.348             12.535              23.574              
N              -12.847             7.977               19.731              
C              -13.408             7.285               18.574              
C              -14.294             6.182               19.133              
O              -13.825             5.318               19.908              
C              -12.319             6.721               17.645              
C              -11.277             7.815               17.331              
C              -12.977             6.172               16.39               
C              -10.164             7.336               16.402              
H              -12.26              7.52                20.449              
H              -14.006             7.931               18.126              
H              -11.853             5.988               18.122              
H              -11.745             8.58                16.905              
H              -10.87              8.11                18.189              
H              -12.281             5.773               15.795              
H              -13.642             5.469               16.64               
H              -13.443             6.911               15.906              
H              -10.566             7.041               15.539              
H              -9.529              8.088               16.242              
H              -9.687              6.574               16.833              
N              -15.571             6.209               18.78               
C              -16.556             5.234               19.281              
C              -17.349             4.718               18.082              
O              -17.465             5.349               17.05               
C              -17.505             5.902               20.293              
C              -16.77              6.149               21.671              
C              -17.573             6.882               22.662              
O              -17.744             8.051               22.434              
O              -17.906             6.242               23.702              
H              -15.826             6.975               18.119              
H              -16.085             4.481               19.722              
H              -17.753             6.771               19.957              
H              -18.234             5.3                 20.477              
H              -16.546             5.253               22.021              
H              -15.956             6.665               21.455              
N              -17.895             3.489               18.24               
C              -18.756             2.923               17.248              
C              -20.062             2.464               17.869              
O              -20.077             2.044               19.033              
C              -18.313             1.743               16.418              
C              -18.27              0.443               17.111              
C              -17.622             -0.683              16.325              
C              -17.757             -2.014              17.022              
N              -17.226             -3.136              16.26               
H              -17.626             3.025               19.129              
H              -18.964             3.618               16.545              
H              -18.94              1.672               15.624              
H              -17.39              1.953               16.053              
H              -17.765             0.538               17.993              
H              -19.216             0.148               17.355              
H              -18.061             -0.742              15.43               
H              -16.651             -0.477              16.21               
H              -17.282             -1.957              17.92               
H              -18.742             -2.175              17.222              
H              -16.327             -2.901              15.877              
H              -17.123             -3.941              16.853              
H              -17.848             -3.369              15.505              
N              -21.097             2.531               17.057              
C              -22.414             1.958               17.381              
C              -22.909             1.339               16.083              
O              -23.306             2.061               15.173              
C              -23.333             3.041               17.909              
C              -24.688             2.538               18.352              
H              -20.913             3.028               16.152              
H              -22.26              1.223               18.018              
H              -22.888             3.484               18.693              
H              -23.47              3.724               17.186              
O              -25.464             3.345               18.96               
N              -25.023             1.334               18.087              
H              -24.37              0.729               17.587              
H              -25.911             0.955               18.354              
N              -22.792             0.018               15.991              
C              -23.067             -0.607              14.705              
C              -22.121             -0.074              13.66               
O              -20.928             0.059               13.878              
H              -22.515             -0.474              16.833              
H              -22.956             -1.602              14.787              
H              -24.015             -0.412              14.435              
N              -22.69              0.32                12.505              
C              -21.977             0.81                11.355              
C              -21.607             2.297               11.531              
O              -21.006             2.825               10.617              
C              -22.665             0.527               10.034              
C              -22.964             -0.896              9.828               
O              -22.228             -1.73               10.323              
O              -23.981             -1.193              9.163               
H              -23.75              0.23                12.528              
H              -21.106             0.308               11.291              
H              -23.516             1.057               10.018              
H              -22.062             0.855               9.304               
N              -22                 2.951               12.589              
C              -21.775             4.402               12.71               
C              -20.601             4.659               13.648              
O              -20.619             4.26                14.821              
C              -23.015             5.086               13.186              
C              -24.211             4.783               12.301              
C              -22.738             6.609               13.26               
C              -24.06              5.05                10.883              
H              -22.471             2.394               13.322              
H              -21.495             4.714               11.804              
H              -23.233             4.757               14.112              
H              -24.456             3.804               12.447              
H              -25                 5.316               12.67               
H              -23.539             7.062               13.636              
H              -21.951             6.763               13.847              
H              -22.553             6.945               12.343              
H              -23.305             4.506               10.49               
H              -24.904             4.818               10.379              
H              -23.858             6.025               10.717              
N              -19.606             5.372               13.125              
C              -18.488             5.837               13.922              
C              -18.731             7.274               14.327              
O              -19.306             8.061               13.558              
C              -17.184             5.734               13.116              
C              -16.72              4.302               12.943              
C              -15.795             4.074               11.83               
C              -16.063             3.787               14.223              
H              -19.704             5.562               12.104              
H              -18.427             5.277               14.75               
H              -17.353             6.11                12.225              
H              -16.49              6.224               13.606              
H              -17.554             3.711               12.835              
H              -14.953             4.621               11.941              
H              -15.528             3.101               11.774              
H              -16.217             4.331               10.949              
H              -16.723             3.825               14.973              
H              -15.765             2.843               14.086              
H              -15.273             4.359               14.443              
N              -18.3               7.635               15.545              
C              -18.291             9.009               15.989              
C              -16.884             9.346               16.469              
O              -16.318             8.604               17.272              
C              -19.326             9.245               17.103              
O              -20.634             8.955               16.577              
C              -19.303             10.67               17.596              
H              -17.976             6.833               16.132              
H              -18.508             9.604               15.217              
H              -19.143             8.601               17.866              
H              -18.407             10.883              17.998              
H              -19.474             11.303              16.835              
H              -20.012             10.807              18.295              
H              -20.563             8.642               15.625              
N              -16.349             10.444              15.957              
C              -14.987             10.885              16.263              
C              -15.09              12.288              16.836              
O              -15.518             13.224              16.161              
C              -14.106             10.783              15.016              
C              -12.605             10.998              15.244              
C              -11.82              10.329              14.126              
C              -12.232             12.457              15.34               
H              -16.982             10.974              15.312              
H              -14.607             10.285              16.954              
H              -14.219             9.872               14.635              
H              -14.409             11.473              14.369              
H              -12.35              10.595              16.117              
H              -12.083             10.728              13.247              
H              -10.841             10.469              14.274              
H              -12.018             9.348               14.118              
H              -12.719             12.884              16.106              
H              -11.244             12.547              15.489              
H              -12.48              12.929              14.491              
N              -14.732             12.402              18.109              
C              -14.73              13.657              18.844              
C              -13.3               14.14               18.974              
O              -12.415             13.335              19.26               
C              -15.306             13.477              20.253              
C              -16.728             12.953              20.29               
C              -17.175             12.705              21.728              
C              -18.616             12.254              21.806              
N              -19.059             12.204              23.261              
H              -14.444             11.487              18.551              
H              -15.257             14.336              18.333              
H              -14.719             12.835              20.747              
H              -15.284             14.367              20.712              
H              -17.338             13.625              19.877              
H              -16.777             12.094              19.787              
H              -16.594             11.997              22.123              
H              -17.074             13.553              22.243              
H              -19.197             12.898              21.325              
H              -18.706             11.344              21.421              
H              -19.159             11.251              23.527              
H              -18.365             12.649              23.817              
H              -19.928             12.681              23.342              
N              -13.077             15.429              18.817              
C              -11.795             16.035              19.16               
C              -12.11              17.146              20.179              
O              -12.963             17.99               19.988              
C              -11.08              16.537              17.892              
O              -10.98              15.432              16.932              
C              -9.616              16.874              18.099              
H              -13.878             15.972              18.434              
H              -11.228             15.362              19.605              
H              -11.637             17.266              17.458              
H              -9.086              16.032              18.232              
H              -9.26               17.361              17.297              
H              -9.51               17.457              18.909              
H              -11.86              14.962              16.873              
N              -11.47              17.045              21.354              
C              -11.745             17.976              22.449              
C              -10.457             18.689              22.836              
O              -9.393              18.092              22.922              
C              -12.264             17.231              23.658              
C              -13.621             16.639              23.467              
H              -10.787             16.273              21.412              
H              -12.4               18.659              22.127              
H              -11.626             16.484              23.89               
H              -12.305             17.861              24.445              
N              -14.151             15.731              24.356              
C              -14.556             16.879              22.51               
C              -15.337             15.438              23.938              
N              -15.647             16.095              22.821              
H              -13.691             15.38               25.162              
H              -14.472             17.495              21.739              
H              -15.977             14.784              24.392              
N              -10.584             19.979              23.127              
C              -9.422              20.7                23.614              
C              -8.485              21.107              22.473              
O              -8.955              22.213              21.735              
H              -11.508             20.384              22.986              
H              -8.938              20.116              24.265              
H              -7.587              21.332              22.863              
H              -8.379              20.323              21.854              
H              -9.817              21.976              21.286              
H              -2.21412            23.1876             22.239              
H              -9.75808            21.5926             24.1483             
