215
5.xyz
C              8.93                -21.076             -19.762             
C              9.213               -19.741             -19.115             
O              10.37               -19.356             -18.975             
C              8.783               -22.139             -18.628             
C              8.464               -23.507             -19.196             
C              7.882               -24.402             -18.211             
H              8.092               -20.989             -20.312             
H              9.64                -22.185             -18.139             
H              8.043               -21.855             -18.037             
H              7.827               -23.379             -19.966             
H              9.321               -23.897             -19.556             
O              6.92                -24.073             -17.51              
N              8.511               -25.502             -18.019             
H              8.182               -26.22              -17.314             
H              9.361               -25.721             -18.55              
N              8.155               -19.2               -18.578             
C              8.326               -17.992             -17.808             
C              7.307               -18.005             -16.666             
O              6.215               -18.542             -16.797             
C              8.038               -16.754             -18.618             
C              8.961               -16.582             -19.789             
C              8.805               -15.242             -20.513             
O              9.698               -14.859             -21.241             
O              7.764               -14.619             -20.441             
H              7.263               -19.669             -18.737             
H              9.246               -17.949             -17.426             
H              7.119               -16.825             -18.967             
H              8.148               -15.972             -18.03              
H              9.896               -16.628             -19.47              
H              8.773               -17.289             -20.454             
N              7.696               -17.277             -15.615             
C              6.746               -16.947             -14.559             
C              7.094               -15.566             -14.014             
O              8.267               -15.186             -14.003             
C              6.729               -18.04              -13.464             
O              5.711               -17.749             -12.506             
C              8.021               -18.171             -12.677             
H              8.681               -16.986             -15.621             
H              5.83                -16.909             -14.952             
H              6.512               -18.936             -13.903             
H              8.455               -19.053             -12.878             
H              8.65                -17.431             -12.928             
H              7.829               -18.117             -11.694             
H              4.903               -17.357             -12.959             
N              6.075               -14.837             -13.569             
C              6.281               -13.565             -12.947             
C              5.796               -13.6               -11.504             
O              4.774               -14.206             -11.164             
C              5.586               -12.423             -13.692             
O              4.2                 -12.724             -13.838             
C              6.211               -12.204             -15.069             
H              5.14                -15.274             -13.715             
H              7.266               -13.355             -12.938             
H              5.671               -11.567             -13.14              
H              6.853               -11.436             -15.029             
H              6.701               -13.03              -15.352             
H              5.493               -12.001             -15.736             
H              4.047               -13.718             -13.787             
N              6.56                -12.89              -10.665             
C              6.266               -12.66              -9.253              
C              6.208               -11.144             -9.111              
O              7.244               -10.484             -9.212              
C              7.311               -13.265             -8.324              
C              7.64                -14.765             -8.551              
C              8.76                -14.967             -9.606              
C              8.092               -15.41              -7.235              
H              7.428               -12.495             -11.131             
H              5.379               -13.03              -9.047              
H              8.163               -12.765             -8.442              
H              6.986               -13.182             -7.389              
H              6.812               -15.232             -8.864              
H              9.584               -14.508             -9.289              
H              8.928               -15.943             -9.71               
H              8.459               -14.576             -10.47              
H              7.359               -15.331             -6.561              
H              8.3                 -16.374             -7.396              
H              8.908               -14.94              -6.902              
N              5.01                -10.594             -8.963              
C              4.802               -9.15               -9.001              
C              4.362               -8.706              -7.607              
O              3.418               -9.259              -7.056              
C              3.76                -8.769              -10.048             
C              3.483               -7.271              -10.006             
C              4.239               -9.186              -11.446             
H              4.234               -11.277             -8.818              
H              5.672               -8.713              -9.203              
H              2.905               -9.225              -9.815              
H              2.513               -7.107              -10.181             
H              3.724               -6.913              -9.105              
H              4.03                -6.811              -10.705             
H              4.911               -9.917              -11.353             
H              3.456               -9.508              -11.974             
H              4.652               -8.397              -11.895             
N              5.049               -7.719              -7.046              
C              4.716               -7.207              -5.725              
C              4.259               -5.75               -5.859              
O              4.901               -4.935              -6.513              
C              5.9                 -7.307              -4.778              
C              6.232               -8.756              -4.455              
C              7.457               -8.89               -3.538              
N              7.69                -10.25              -3.083              
C              8.452               -11.136             -3.739              
N              9.036               -10.836             -4.892              
N              8.664               -12.33              -3.202              
H              5.832               -7.35               -7.623              
H              3.963               -7.741              -5.345              
H              6.687               -6.902              -5.212              
H              5.671               -6.851              -3.935              
H              5.457               -9.183              -3.991              
H              6.43                -9.251              -5.3                
H              8.253               -8.566              -4.051              
H              7.307               -8.292              -2.748              
H              7.258               -10.55              -2.229              
H              8.927               -9.92               -5.281              
H              9.584               -11.521             -5.371              
H              8.275               -12.557             -2.308              
H              9.216               -13.008             -3.69               
N              3.106               -5.426              -5.285              
C              2.643               -4.038              -5.232              
C              2.111               -3.76               -3.842              
O              1.53                -4.642              -3.156              
C              1.563               -3.762              -6.253              
C              0.38                -4.568              -5.944              
C              -0.521              -4.609              -7.108              
O              -1.361              -3.627              -7.223              
O              -0.521              -5.558              -7.884              
H              2.574               -6.221              -4.887              
H              3.403               -3.424              -5.435              
H              1.332               -2.818              -6.187              
H              1.909               -4.024              -7.124              
H              0.66                -5.488              -5.744              
H              -0.108              -4.155              -5.198              
N              2.189               -2.522              -3.416              
C              1.671               -2.076              -2.143              
C              0.298               -1.524              -2.378              
O              0.087               -0.625              -3.2                
C              2.59                -1.012              -1.554              
C              3.978               -1.585              -1.224              
C              5.004               -0.521              -1.117              
C              3.917               -2.553              -0.113              
H              2.67                -1.866              -4.092              
H              1.605               -2.861              -1.53               
H              2.716               -0.308              -2.22               
H              2.199               -0.693              -0.719              
H              4.225               -2.24               -1.95               
H              4.763               0.132               -0.389              
H              5.904               -0.917              -0.901              
H              5.081               -0.015              -1.984              
H              3.313               -3.327              -0.345              
H              4.834               -2.92               0.093               
H              3.559               -2.116              0.723               
N              -0.662              -2.055              -1.666              
C              -2.066              -1.617              -1.76               
C              -2.558              -1.449              -0.312              
O              -2.598              -2.397              0.447               
C              -2.97               -2.637              -2.493              
C              -2.469              -2.915              -3.923              
C              -4.401              -2.117              -2.515              
C              -3.337              -3.883              -4.657              
H              -0.363              -2.821              -1.017              
H              -2.048              -0.715              -2.156              
H              -2.938              -3.495              -1.986              
H              -2.442              -2.049              -4.412              
H              -1.546              -3.282              -3.854              
H              -4.996              -2.798              -2.938              
H              -4.707              -1.943              -1.581              
H              -4.439              -1.269              -3.04               
H              -4.269              -3.521              -4.727              
H              -2.975              -4.034              -5.58               
H              -3.362              -4.758              -4.168              
N              -2.9                -0.187              0.057               
C              -3.303              -0.006              1.374               
C              -2.396              -0.486              2.479               
O              -2.84               -1.007              3.561               
C              -4.766              -0.513              1.591               
C              -5.764              0.24                0.73                
O              -5.561              1.522               0.545               
O              -6.742              -0.441              0.223               
H              -2.825              0.506               -0.68               
H              -3.429              1.019               1.535               
H              -4.782              -1.47               1.35                
H              -4.985              -0.375              2.543               
N              -1.112              -0.34               2.227               
C              -0.107              -0.747              3.202               
C              0.217               -2.234              3.248               
O              1.133               -2.625              3.995               
H              -0.881              0.075               1.308               
H              0.761               -0.224              3.023               
H              -0.41               -0.445              4.138               
N              -0.5                -3.033              2.465               
C              -0.198              -4.472              2.421               
C              0.548               -4.724              1.108               
O              0.323               -4.063              0.086               
C              -1.477              -5.292              2.456               
C              -2.394              -4.907              3.596               
C              -3.609              -5.771              3.523               
C              -4.756              -5.236              4.344               
N              -4.203              -5.211              5.708               
H              -1.242              -2.586              1.923               
H              0.397               -4.7                3.177               
H              -1.964              -5.152              1.599               
H              -1.232              -6.252              2.558               
H              -1.925              -5.062              4.454               
H              -2.653              -3.957              3.497               
H              -3.91               -5.84               2.567               
H              -3.384              -6.691              3.858               
H              -4.968              -4.333              4.054               
H              -5.503              -5.856              4.299               
H              -4.189              -6.139              6.086               
H              -3.268              -4.85               5.689               
H              -4.769              -4.626              6.293               
N              1.428               -5.708              1.178               
H              1.522               -6.148              2.113               
H              9.72267             -21.3482            -20.4229            
H              1.95673             -5.99249            0.371714            
