313
2.xyz
C              2.683               -21.196             5.316               
O              2.152               -20.77              4.276               
N              3.145               -20.403             6.282               
C              3.03                -18.961             6.227               
C              4.429               -18.348             6.264               
O              4.994               -18.175             7.347               
C              2.194               -18.414             7.382               
C              0.764               -18.945             7.339               
C              -0.079              -18.345             8.423               
C              -1.455              -19.025             8.485               
N              -2.266              -18.419             9.508               
H              3.594               -20.915             7.076               
H              2.589               -18.695             5.369               
H              2.606               -18.701             8.232               
H              2.163               -17.429             7.308               
H              0.368               -18.722             6.445               
H              0.79                -19.941             7.447               
H              0.364               -18.473             9.302               
H              -0.224              -17.38              8.241               
H              -1.885              -18.928             7.586               
H              -1.308              -19.997             8.677               
H              -1.688              -18.007             10.223              
H              -2.849              -17.695             9.118               
H              -2.863              -19.105             9.942               
N              5.011               -18.043             5.129               
C              6.376               -17.523             5.131               
C              6.451               -16.102             5.675               
O              5.498               -15.338             5.676               
C              6.791               -17.555             3.652               
C              5.839               -18.546             2.997               
C              4.553               -18.313             3.75                
H              6.992               -18.137             5.651               
H              6.693               -16.651             3.234               
H              7.737               -17.864             3.552               
H              5.738               -18.334             2.035               
H              6.171               -19.47              3.125               
H              4.054               -17.527             3.387               
H              3.965               -19.121             3.729               
N              7.694               -15.789             6.059               
C              8.134               -14.434             6.351               
C              9.088               -14.022             5.242               
O              10.054              -14.729             4.972               
C              8.82                -14.391             7.719               
O              7.862               -14.704             8.722               
C              9.378               -12.999             8.017               
H              8.332               -16.624             6.131               
H              7.346               -13.829             6.331               
H              9.553               -15.099             7.743               
H              10.172              -13.077             8.622               
H              9.655               -12.558             7.162               
H              8.675               -12.443             8.463               
H              6.954               -14.347             8.47                
N              8.813               -12.878             4.617               
C              9.665               -12.351             3.569               
C              10.347              -11.094             4.091               
O              9.693               -10.202             4.637               
C              8.824               -12.045             2.305               
O              8.139               -13.207             1.87                
C              9.647               -11.424             1.207               
H              7.944               -12.406             4.946               
H              10.37               -13.025             3.355               
H              8.132               -11.328             2.545               
H              9.443               -10.442             1.133               
H              10.627              -11.536             1.401               
H              9.441               -11.863             0.327               
H              8.772               -13.845             1.414               
N              11.673              -11.048             3.912               
C              12.463              -9.919              4.367               
C              13.119              -9.298              3.133               
O              13.805              -9.993              2.379               
C              13.542              -10.361             5.371               
C              12.945              -11.144             6.549               
C              14.342              -9.149              5.862               
C              14                  -11.914             7.322               
H              12.07               -11.876             3.429               
H              11.824              -9.244              4.714               
H              14.179              -10.966             4.893               
H              12.499              -10.503             7.159               
H              12.279              -11.786             6.19                
H              15.085              -9.462              6.448               
H              14.716              -8.663              5.076               
H              13.739              -8.544              6.376               
H              14.675              -11.274             7.684               
H              13.564              -12.404             8.074               
H              14.447              -12.564             6.71                
N              12.885              -8.015              2.922               
C              13.424              -7.302              1.759               
C              14.308              -6.179              2.304               
O              13.835              -5.325              3.06                
C              12.322              -6.739              0.834               
C              11.286              -7.836              0.522               
C              12.955              -6.178              -0.41               
C              10.159              -7.362              -0.387              
H              12.291              -7.552              3.642               
H              14.025              -7.937              1.298               
H              11.857              -6.01               1.318               
H              11.756              -8.596              0.085               
H              10.893              -8.145              1.383               
H              12.253              -5.775              -1                  
H              13.62               -5.47               -0.166              
H              13.424              -6.906              -0.914              
H              10.546              -7.055              -1.253              
H              9.529               -8.118              -0.546              
H              9.679               -6.608              0.055               
N              15.583              -6.204              1.935               
C              16.541              -5.214              2.392               
C              17.331              -4.706              1.196               
O              17.469              -5.384              0.188               
C              17.497              -5.783              3.449               
C              16.855              -6.151              4.774               
C              17.716              -6.861              5.733               
O              17.864              -8.022              5.531               
O              18.185              -6.187              6.689               
H              15.832              -6.99               1.294               
H              16.063              -4.451              2.826               
H              17.901              -6.604              3.072               
H              18.185              -5.095              3.629               
H              16.542              -5.3                5.199               
H              16.063              -6.729              4.572               
N              17.872              -3.498              1.342               
C              18.737              -2.935              0.317               
C              20.031              -2.462              0.931               
O              20.062              -2.025              2.078               
C              18.132              -1.816              -0.48               
C              18.117              -0.471              0.146               
C              17.446              0.561               -0.777              
C              17.586              1.893               -0.023              
N              16.999              2.981               -0.765              
H              17.628              -3.013              2.222               
H              18.938              -3.647              -0.365              
H              18.633              -1.754              -1.364              
H              17.174              -2.076              -0.708              
H              17.603              -0.493              1.005               
H              19.051              -0.16               0.326               
H              17.942              0.616               -1.6                
H              16.511              0.348               -0.861              
H              17.135              1.788               0.87                
H              18.566              2.057               0.131               
H              16.519              3.615               -0.146              
H              17.709              3.498               -1.258              
H              16.335              2.634               -1.439              
N              21.082              -2.515              0.106               
C              22.384              -1.94               0.427               
C              22.887              -1.335              -0.878              
O              23.271              -2.058              -1.793              
C              23.317              -3.027              0.952               
C              24.68               -2.546              1.432               
H              20.886              -3.01               -0.798              
H              22.231              -1.194              1.053               
H              22.861              -3.493              1.721               
H              23.463              -3.702              0.217               
O              25.411              -3.352              2.093               
N              25.057              -1.376              1.081               
H              24.459              -0.79               0.506               
H              25.951              -1.001              1.362               
N              22.759              -0.012              -0.962              
C              23.055              0.593               -2.217              
C              22.133              0.089               -3.25               
O              20.949              -0.028              -3.024              
H              22.458              0.463               -0.118              
H              22.971              1.599               -2.138              
H              24.012              0.388               -2.476              
N              22.744              -0.318              -4.355              
C              22.011              -0.809              -5.524              
C              21.581              -2.304              -5.385              
O              20.93               -2.744              -6.222              
C              22.734              -0.574              -6.801              
C              23.026              0.925               -7.046              
O              22.228              1.757               -6.617              
O              24.045              1.201               -7.711              
H              23.785              -0.26               -4.323              
H              21.156              -0.277              -5.593              
H              23.609              -1.046              -6.782              
H              22.183              -0.896              -7.562              
N              21.92               -2.952              -4.337              
C              21.713              -4.398              -4.227              
C              20.545              -4.682              -3.266              
O              20.587              -4.27               -2.089              
C              22.973              -5.076              -3.726              
C              24.153              -4.742              -4.661              
C              22.734              -6.594              -3.633              
C              23.891              -5.002              -6.141              
H              22.351              -2.395              -3.566              
H              21.418              -4.711              -5.128              
H              23.195              -4.716              -2.828              
H              24.385              -3.776              -4.54               
H              24.939              -5.293              -4.376              
H              23.555              -7.031              -3.277              
H              21.967              -6.765              -3.022              
H              22.529              -6.947              -4.541              
H              23.118              -4.446              -6.437              
H              24.705              -4.758              -6.663              
H              23.682              -5.968              -6.269              
N              19.55               -5.406              -3.749              
C              18.467              -5.88               -2.913              
C              18.755              -7.324              -2.501              
O              19.302              -8.101              -3.287              
C              17.131              -5.863              -3.625              
C              16.388              -4.532              -3.682              
C              17.235              -3.564              -4.533              
C              14.936              -4.667              -4.075              
H              19.613              -5.603              -4.773              
H              18.424              -5.322              -2.085              
H              17.28               -6.158              -4.572              
H              16.526              -6.519              -3.169              
H              16.297              -4.164              -2.773              
H              17.343              -3.946              -5.447              
H              16.768              -2.685              -4.585              
H              18.128              -3.451              -4.103              
H              14.456              -5.246              -3.412              
H              14.503              -3.763              -4.095              
H              14.867              -5.084              -4.984              
N              18.349              -7.666              -1.277              
C              18.359              -9.047              -0.821              
C              16.962              -9.385              -0.329              
O              16.398              -8.661              0.49                
C              19.402              -9.267              0.282               
O              20.699              -8.965              -0.244              
C              19.397              -10.7               0.77                
H              18.031              -6.868              -0.69               
H              18.574              -9.638              -1.593              
H              19.213              -8.625              1.049               
H              19.743              -11.309             0.051               
H              19.982              -10.789             1.581               
H              18.463              -10.978             1.011               
H              20.628              -8.67               -1.203              
N              16.428              -10.487             -0.857              
C              15.066              -10.921             -0.555              
C              15.168              -12.328             0.028               
O              15.567              -13.276             -0.646              
C              14.202              -10.847             -1.818              
C              12.698              -10.998             -1.589              
C              11.924              -10.313             -2.693              
C              12.275              -12.448             -1.478              
H              17.063              -11.008             -1.5                
H              14.684              -10.321             0.134               
H              14.352              -9.96               -2.238              
H              14.487              -11.577             -2.425              
H              12.463              -10.587             -0.708              
H              12.159              -10.723             -3.577              
H              10.94               -10.418             -2.533              
H              12.152              -9.337              -2.712              
H              12.748              -12.88              -0.708              
H              11.286              -12.501             -1.329              
H              12.508              -12.934             -2.323              
N              14.838              -12.418             1.321               
C              14.833              -13.674             2.048               
C              13.386              -14.154             2.191               
O              12.516              -13.348             2.499               
C              15.398              -13.493             3.474               
C              16.83               -12.981             3.533               
C              17.255              -12.739             5.004               
C              18.708              -12.362             5.14                
N              19.094              -12.238             6.603               
H              14.585              -11.5               1.758               
H              15.345              -14.359             1.531               
H              14.809              -12.844             3.956               
H              15.359              -14.381             3.932               
H              17.442              -13.657             3.141               
H              16.897              -12.12              3.045               
H              16.687              -12.002             5.369               
H              17.083              -13.58              5.515               
H              19.28               -13.064             4.724               
H              18.873              -11.484             4.698               
H              19.058              -13.141             7.018               
H              20.016              -11.869             6.657               
H              18.449              -11.626             7.05                
N              13.171              -15.445             2.006               
C              11.862              -16.045             2.284               
C              12.109              -17.187             3.261               
O              12.85               -18.116             2.965               
C              11.185              -16.547             0.992               
O              11.187              -15.51              0.011               
C              9.733               -16.921             1.28                
H              13.981              -15.986             1.657               
H              11.292              -15.368             2.725               
H              11.722              -17.336             0.627               
H              9.701               -17.781             1.793               
H              9.299               -16.198             1.821               
H              9.236               -17.032             0.418               
H              12.094              -15.078             -0.043              
N              11.523              -17.05              4.463               
C              11.76               -17.985             5.537               
C              10.456              -18.692             5.908               
O              9.388               -18.096             5.922               
C              12.259              -17.243             6.781               
C              13.636              -16.702             6.6                 
H              10.897              -16.222             4.537               
H              12.412              -18.682             5.226               
H              11.639              -16.483             6.976               
H              12.263              -17.876             7.555               
N              14.162              -15.771             7.464               
C              14.607              -16.984             5.685               
C              15.394              -15.5               7.081               
N              15.696              -16.211             6.012               
H              13.691              -15.372             8.244               
H              14.538              -17.623             4.93                
H              16.011              -14.848             7.534               
N              10.577              -19.98              6.225               
C              9.414               -20.702             6.712               
C              9.866               -21.96              7.418               
O              11.037              -22.305             7.421               
C              8.47                -21.072             5.547               
O              8.931               -22.195             4.827               
H              11.507              -20.385             6.101               
H              8.942               -20.121             7.379               
H              7.568               -21.27              5.926               
H              8.411               -20.287             4.932               
H              9.796               -21.974             4.377               
N              8.87                -22.66              7.991               
H              7.95                -22.185             7.975               
H              2.8547              -22.2402            5.43536             
H              9.03306             -23.5662            8.39345             
