167
2.xyz
C              10.974              19.223              0.051               
C              11.488              17.901              -0.512              
O              11.088              16.818              -0.057              
C              9.587               19.566              -0.476              
C              8.373               18.939              0.187               
C              8.28                19.197              1.691               
C              7.135               19.423              -0.564              
H              10.863              19.12               1.053               
H              9.477               20.569              -0.414              
H              9.56                19.311              -1.452              
H              8.391               17.936              0.029               
H              8.231               20.181              1.855               
H              7.46                18.755              2.052               
H              9.089               18.822              2.142               
H              7.195               19.14               -1.521              
H              6.317               19.025              -0.148              
H              7.084               20.42               -0.513              
N              12.384              17.96               -1.494              
C              12.983              16.719              -1.995              
C              13.875              16.001              -0.978              
O              14.88               16.51               -0.45               
C              13.696              16.902              -3.337              
C              14.954              17.681              -3.233              
O              14.881              18.828              -2.733              
O              15.984              17.149              -3.701              
H              12.605              18.891              -1.847              
H              12.217              16.086              -2.213              
H              13.895              15.99               -3.695              
H              13.062              17.37               -3.951              
N              13.445              14.78               -0.722              
C              13.929              13.943              0.345               
C              13.764              14.391              1.763               
O              14.416              13.848              2.67                
C              15.323              13.449              0.061               
C              15.271              12.089              -0.546              
H              12.684              14.457              -1.395              
H              13.428              13.031              0.257               
H              15.759              14.072              -0.575              
H              15.825              13.405              0.914               
O              14.818              11.144              0.109               
N              15.614              11.987              -1.821              
H              15.898              12.805              -2.328              
H              15.592              11.1                -2.281              
N              12.827              15.314              1.963               
C              12.444              15.734              3.297               
C              11.845              14.538              4.03                
O              10.957              13.851              3.506               
C              11.413              16.874              3.234               
C              11.232              17.506              4.612               
C              12.079              18.508              5.025               
C              10.256              17.059              5.503               
C              11.981              19.059              6.268               
C              10.138              17.615              6.777               
C              11.029              18.636              7.137               
O              11.035              19.301              8.344               
H              12.404              15.698              1.094               
H              13.263              16.021              3.791               
H              11.746              17.562              2.621               
H              10.552              16.5                2.953               
H              12.792              18.843              4.39                
H              9.633               16.333              5.226               
H              12.627              19.794              6.544               
H              9.451               17.303              7.409               
H              10.474              18.797              8.997               
N              12.311              14.302              5.257               
C              11.909              13.124              6.05                
C              12.023              11.853              5.222               
O              11.324              10.882              5.495               
C              10.492              13.281              6.603               
C              10.413              14.064              7.906               
C              11.051              13.305              9.078               
N              11.224              14.214              10.215              
C              10.696              14.064              11.438              
N              9.973               12.995              11.764              
N              10.933              14.993              12.368              
H              12.982              15.016              5.611               
H              12.521              13.053              6.844               
H              9.942               13.758              5.923               
H              10.118              12.372              6.767               
H              10.896              14.931              7.806               
H              9.457               14.233              8.138               
H              10.445              12.571              9.331               
H              11.93               12.974              8.782               
H              11.8                15.041              10.065              
H              9.832               12.27               11.089              
H              9.576               12.918              12.676              
H              11.514              15.776              12.151              
H              10.53               14.901              13.277              
N              12.928              11.846              4.233               
C              13.155              10.642              3.41                
C              12.174              10.352              2.262               
O              12.238              9.28                1.64                
H              13.439              12.731              4.1                 
H              14.112              10.69               3.019               
H              13.18               9.818               4.037               
N              11.246              11.273              2.005               
C              10.332              11.165              0.878               
C              10.888              11.901              -0.35               
O              10.958              13.17               -0.376              
C              8.957               11.71               1.282               
C              8.264               10.815              2.281               
C              7.484               9.74                1.851               
C              8.421               11.002              3.661               
C              6.826               8.901               2.763               
C              7.767               10.163              4.586               
C              6.998               9.079               4.118               
O              6.34                8.226               4.999               
H              11.234              12.071              2.678               
H              10.235              10.194              0.635               
H              9.085               12.601              1.693               
H              8.395               11.767              0.47                
H              7.387               9.559               0.871               
H              9.001               11.734              3.997               
H              6.231               8.17                2.416               
H              7.846               10.334              5.559               
H              6.159               7.364               4.534               
N              11.272              11.108              -1.352              
C              11.738              11.609              -2.645              
C              10.726              12.574              -3.273              
O              9.507               12.552              -2.975              
C              12.019              10.444              -3.607              
O              10.812              9.842               -4.04               
H              11.21               10.084              -1.131              
H              12.594              12.119              -2.493              
H              12.51               10.796              -4.397              
H              12.569              9.766               -3.131              
H              10.099              10.538              -4.111              
N              11.246              13.436              -4.144              
C              10.422              14.431              -4.8                
C              9.212               13.77               -5.472              
O              8.082               14.278              -5.42               
C              11.265              15.201              -5.829              
C              10.942              16.643              -6.199              
C              10.565              17.528              -5.016              
C              12.165              17.219              -6.94               
H              12.265              13.331              -4.304              
H              10.08               15.079              -4.112              
H              12.229              15.187              -5.495              
H              11.25               14.66               -6.692              
H              10.177              16.646              -6.868              
H              11.325              17.557              -4.366              
H              10.369              18.453              -5.341              
H              9.755               17.154              -4.565              
H              12.334              16.675              -7.759              
H              11.976              18.165              -7.193              
H              12.958              17.18               -6.336              
N              9.433               12.625              -6.099              
C              8.299               11.874              -6.715              
C              7.045               11.758              -5.863              
O              5.912               11.909              -6.372              
H              10.402              12.3                -6.132              
H              8.067               12.325              -7.605              
H              8.634               10.938              -6.958              
N              7.258               11.476              -4.57               
C              6.193               11.3                -3.593              
C              6.772               10.766              -2.265              
C              7.21                9.304               -2.358              
O              6.415               8.344               -2.229              
N              8.476               9.13                -2.594              
H              8.278               11.392              -4.323              
H              5.561               10.597              -3.965              
H              7.563               11.318              -2.026              
H              6.069               10.842              -1.567              
H              9.114               9.893               -2.701              
H              8.852               8.186               -2.677              
H              5.60558             12.2034             -3.43142            
H              11.6393             20.0346             -0.130973           
