361
4.xyz
C              -1.373              15.402              -8.171              
C              -2.779              14.988              -7.742              
O              -3.754              15.575              -8.211              
C              -0.736              14.296              -9.011              
C              -1.637              13.791              -10.117             
C              -1.952              14.835              -11.147             
C              -2.367              14.197              -12.446             
N              -2.81               15.216              -13.428             
H              -1.454              16.2                -8.785              
H              0.096               14.657              -9.421              
H              -0.517              13.534              -8.407              
H              -1.187              13.006              -10.569             
H              -2.499              13.459              -9.708              
H              -2.7                15.405              -10.818             
H              -1.142              15.391              -11.309             
H              -1.59               13.689              -12.828             
H              -3.121              13.557              -12.274             
H              -2.913              14.791              -14.328             
H              -3.688              15.6                -13.139             
H              -2.129              15.947              -13.482             
N              -2.852              14.019              -6.832              
C              -4.134              13.437              -6.406              
C              -4.865              14.212              -5.307              
O              -6.11               14.042              -5.133              
C              -3.93               11.962              -6.083              
C              -3.442              11.193              -7.261              
C              -4.147              11.223              -8.461              
C              -2.234              10.521              -7.214              
C              -3.684              10.544              -9.552              
C              -1.762              9.859               -8.314              
C              -2.478              9.868               -9.491              
H              -1.936              13.71               -6.45               
H              -4.743              13.447              -7.224              
H              -3.256              11.9                -5.37               
H              -4.798              11.591              -5.807              
H              -4.993              11.746              -8.518              
H              -1.703              10.524              -6.362              
H              -4.225              10.533              -10.408             
H              -0.876              9.355               -8.261              
H              -2.134              9.392               -10.3               
N              -4.134              15.103              -4.622              
C              -4.767              16.019              -3.695              
C              -5.444              17.227              -4.38               
O              -6.575              17.578              -4.018              
C              -3.79               16.471              -2.589              
C              -3.309              15.37               -1.611              
C              -4.377              14.815              -0.684              
O              -5.513              15.334              -0.744              
O              -4.076              13.873              0.111               
H              -3.121              15.072              -4.813              
H              -5.467              15.526              -3.144              
H              -2.984              16.837              -3.031              
H              -4.247              17.16               -2.047              
H              -2.962              14.621              -2.157              
H              -2.595              15.763              -1.049              
N              -4.744              17.879              -5.319              
C              -5.169              19.161              -5.843              
C              -5.155              19.215              -7.354              
O              -5.57               20.204              -7.916              
C              -4.204              20.242              -5.35               
O              -2.955              20.121              -6.039              
H              -3.882              17.383              -5.628              
H              -6.123              19.326              -5.533              
H              -4.589              21.131              -5.542              
H              -4.047              20.118              -4.382              
H              -2.721              19.156              -6.122              
N              -4.664              18.152              -8.001              
C              -4.324              18.169              -9.441              
C              -3.469              19.367              -9.844              
O              -3.686              19.972              -10.929             
C              -5.582              18.129              -10.274             
C              -5.309              17.859              -11.747             
H              -4.539              17.305              -7.405              
H              -3.775              17.336              -9.618              
H              -6.177              17.404              -9.931              
H              -6.048              19.01               -10.201             
O              -4.39               17.086              -12.111             
N              -6.105              18.489              -12.6               
H              -6.824              19.099              -12.273             
H              -5.985              18.353              -13.589             
N              -2.593              19.762              -8.924              
C              -1.571              20.801              -9.131              
C              -2.05               22.242              -8.973              
O              -1.302              23.204              -9.237              
C              -0.881              20.588              -10.488             
C              -0.133              19.277              -10.611             
C              0.375               18.616              -9.491              
C              0.141               18.746              -11.869             
C              1.123               17.43               -9.639              
C              0.878               17.588              -12.026             
C              1.351               16.913              -10.899             
H              -2.691              19.255              -8.001              
H              -0.856              20.649              -8.416              
H              -1.579              20.605              -11.188             
H              -0.229              21.321              -10.614             
H              0.214               18.973              -8.583              
H              -0.211              19.223              -12.685             
H              1.482               16.978              -8.818              
H              1.075               17.232              -12.95              
H              1.854               16.056              -11.008             
N              -3.268              22.384              -8.477              
C              -3.949              23.649              -8.487              
C              -3.831              24.226              -7.111              
O              -4.399              23.68               -6.18               
C              -5.407              23.457              -8.862              
C              -6.137              24.767              -8.991              
H              -3.679              21.507              -8.085              
H              -3.454              24.253              -9.108              
H              -5.45               22.979              -9.735              
H              -5.848              22.913              -8.153              
O              -5.6                25.825              -8.651              
N              -7.337              24.72               -9.537              
H              -7.723              23.844              -9.836              
H              -7.872              25.56               -9.656              
N              -3.094              25.325              -6.995              
C              -2.914              25.982              -5.701              
C              -4.241              26.416              -5.069              
O              -4.345              26.49               -3.863              
C              -2.024              27.246              -5.801              
O              -2.667              28.196              -6.644              
C              -0.65               26.917              -6.329              
H              -2.67               25.667              -7.874              
H              -2.465              25.329              -5.07               
H              -1.93               27.648              -4.871              
H              0.025               26.951              -5.585              
H              -0.644              25.995              -6.729              
H              -0.383              27.578              -7.037              
H              -3.607              27.902              -6.857              
N              -5.275              26.672              -5.845              
C              -6.529              27.197              -5.225              
C              -7.56               26.107              -4.825              
O              -8.719              26.424              -4.494              
C              -7.164              28.201              -6.171              
C              -6.265              29.376              -6.554              
C              -7.063              30.492              -7.192              
H              -5.17               26.499              -6.838              
H              -6.263              27.689              -4.378              
H              -7.429              27.731              -7.019              
H              -7.992              28.578              -5.742              
H              -5.829              29.722              -5.731              
H              -5.584              29.055              -7.202              
O              -7.763              31.211              -6.492              
N              -7.026              30.596              -8.508              
H              -7.547              31.31               -9.001              
H              -6.451              29.931              -9.037              
N              -7.15               24.838              -4.894              
C              -8.059              23.729              -4.58               
C              -8.541              23.799              -3.092              
O              -7.766              24.056              -2.183              
C              -7.394              22.389              -4.881              
H              -6.167              24.709              -5.179              
H              -8.87               23.791              -5.166              
H              -6.89               22.08               -4.076              
H              -8.094              21.716              -5.115              
H              -6.764              22.496              -5.649              
N              -9.839              23.677              -2.897              
C              -10.46              23.628              -1.566              
C              -11.511             22.522              -1.617              
O              -12.154             22.291              -2.662              
C              -11.169             24.953              -1.197              
O              -12.135             25.238              -2.21               
C              -10.18              26.118              -1.104              
H              -10.407             23.616              -3.78               
H              -9.769              23.377              -0.905              
H              -11.654             24.826              -0.315              
H              -10.667             26.983              -1.237              
H              -9.745              26.117              -0.203              
H              -9.479              26.02               -1.812              
H              -11.714             25.758              -2.962              
N              -11.655             21.806              -0.518              
C              -12.661             20.749              -0.409              
C              -13.094             20.669              1.019               
O              -12.245             20.548              1.905               
C              -12.117             19.4                -0.841              
C              -11.821             19.354              -2.338              
H              -11.004             22.05               0.256               
H              -13.446             21.041              -0.952              
H              -11.271             19.222              -0.352              
H              -12.792             18.7                -0.636              
O              -12.736             19.426              -3.177              
N              -10.533             19.291              -2.68               
H              -9.83               19.27               -1.97               
H              -10.273             19.264              -3.644              
N              -14.41              20.766              1.219               
C              -15.038             20.601              2.532               
C              -15.025             19.121              2.897               
O              -15.255             18.248              2.039               
C              -16.501             21.09               2.502               
C              -17.063             21.477              3.857               
C              -16.654             22.902              4.172               
N              -16.887             23.25               5.562               
C              -17.836             24.072              5.997               
N              -18.673             24.683              5.152               
N              -17.918             24.32               7.282               
H              -14.96              20.972              0.351               
H              -14.507             21.105              3.209               
H              -16.544             21.887              1.905               
H              -17.061             20.355              2.129               
H              -18.049             21.433              3.833               
H              -16.689             20.885              4.553               
H              -15.681             22.998              3.964               
H              -17.184             23.512              3.583               
H              -16.278             22.834              6.26                
H              -18.601             24.507              4.172               
H              -19.364             25.31               5.504               
H              -17.294             23.887              7.936               
H              -18.619             24.956              7.631               
N              -14.722             18.844              4.16                
C              -14.818             17.509              4.72                
C              -16.148             17.392              5.414               
O              -16.695             18.391              5.862               
C              -13.669             17.276              5.702               
C              -12.31              17.52               5.061               
H              -14.407             19.676              4.716               
H              -14.821             16.867              3.956               
H              -13.774             17.902              6.466               
H              -13.706             16.334              6.014               
O              -11.483             18.321              5.533               
N              -12.097             16.87               3.945               
H              -12.786             16.264              3.547               
H              -11.213             16.975              3.46                
N              -16.675             16.177              5.523               
C              -18.014             15.987              6.095               
C              -18.077             16.468              7.553               
O              -19.124             16.902              8.016               
C              -18.526             14.506              6.011               
O              -17.48              13.603              6.348               
C              -19.018             14.167              4.632               
H              -16.084             15.404              5.183               
H              -18.67              16.53               5.557               
H              -19.285             14.398              6.685               
H              -19.209             13.182              4.561               
H              -19.863             14.673              4.428               
H              -18.325             14.409              3.944               
H              -16.869             14.009              7.038               
N              -16.965             16.376              8.266               
C              -16.891             16.869              9.636               
C              -16.865             18.388              9.762               
O              -16.799             18.892              10.883              
C              -15.658             16.294              10.342              
C              -14.339             16.884              9.841               
O              -14.319             17.682              8.879               
O              -13.31              16.547              10.44               
H              -16.165             15.931              7.775               
H              -17.733             16.547              10.115              
H              -15.74              16.488              11.314              
H              -15.643             15.312              10.187              
N              -16.871             19.105              8.632               
C              -16.935             20.576              8.61                
C              -15.592             21.269              8.488               
O              -15.535             22.511              8.304               
H              -16.826             18.53               7.76                
H              -17.536             20.864              7.835               
H              -17.404             20.894              9.461               
N              -14.486             20.529              8.604               
C              -13.208             21.144              8.286               
C              -13.105             21.283              6.756               
O              -13.962             20.789              6.028               
C              -12.028             20.333              8.838               
O              -11.992             19.08               8.219               
H              -14.617             19.571              8.912               
H              -13.191             22.062              8.672               
H              -11.191             20.827              8.645               
H              -12.155             20.22               9.815               
H              -12.838             18.578              8.412               
N              -12.065             21.973              6.311               
C              -11.778             22.191              4.892               
C              -10.279             21.894              4.651               
O              -9.432              22.145              5.491               
C              -12.222             23.613              4.453               
O              -13.61              23.813              4.792               
C              -12.084             23.864              2.97                
H              -11.45              22.359              7.074               
H              -12.308             21.547              4.353               
H              -11.669             24.298              4.964               
H              -12.769             23.332              2.464               
H              -12.22              24.839              2.77                
H              -11.168             23.594              2.657               
H              -13.701             24.005              5.773               
N              -10.011             21.32               3.491               
C              -8.683              21.12               2.961               
C              -8.36               22.181              1.945               
O              -9.195              22.495              1.077               
C              -8.594              19.778              2.264               
C              -8.9                18.641              3.179               
O              -8.513              18.681              4.352               
O              -9.528              17.691              2.703               
H              -10.883             21.009              2.967               
H              -8.035              21.229              3.725               
H              -9.248              19.778              1.512               
H              -7.668              19.675              1.911               
N              -7.151              22.728              2.086               
C              -6.687              23.875              1.328               
C              -5.411              23.638              0.551               
O              -4.458              23.065              1.071               
C              -6.435              25.044              2.27                
C              -7.691              25.53               2.918               
C              -8.102              24.994              4.122               
C              -8.445              26.568              2.349               
C              -9.23               25.455              4.762               
C              -9.616              27.002              2.959               
C              -9.988              26.453              4.176               
O              -11.132             26.864              4.842               
H              -6.554              22.244              2.809               
H              -7.42               24.131              0.662               
H              -5.807              24.744              2.978               
H              -6.041              25.788              1.744               
H              -7.568              24.251              4.541               
H              -8.136              26.992              1.508               
H              -9.504              25.073              5.649               
H              -10.181             27.699              2.526               
H              -11.095             26.532              5.781               
N              -5.424              24.046              -0.722              
C              -4.219              24.084              -1.56               
C              -3.684              22.812              -2.2                
O              -4.359              21.764              -2.194              
H              -6.365              24.336              -1.07               
H              -4.374              24.795              -2.315              
H              -3.449              24.521              -0.998              
N              -2.481              22.949              -2.786              
C              -1.815              21.877              -3.543              
C              -1.741              20.573              -2.77               
O              -1.877              19.512              -3.355              
C              -0.35               22.183              -4.018              
C              0.487               22.868              -2.924              
C              -0.334              22.943              -5.333              
C              1.953               22.43               -2.959              
H              -2.054              23.897              -2.655              
H              -2.398              21.707              -4.351              
H              0.078               21.309              -4.238              
H              0.443               23.847              -3.058              
H              0.107               22.626              -2.042              
H              0.605               23.014              -5.668              
H              -0.89               22.458              -6.007              
H              -0.706              23.86               -5.195              
H              2.34                22.668              -3.846              
H              2.448               22.901              -2.234              
H              1.999               21.445              -2.819              
N              -1.532              20.653              -1.455              
C              -1.391              19.455              -0.639              
C              -2.555              19.29               0.338               
O              -2.468              18.538              1.304               
C              -0.028              19.466              0.067               
C              1.143               19.05               -0.852              
C              2.511               19.333              -0.204              
C              1.03                17.573              -1.207              
H              -1.481              21.616              -1.079              
H              -1.374              18.649              -1.248              
H              0.153               20.383              0.372               
H              -0.06               18.823              0.808               
H              1.075               19.561              -1.711              
H              2.58                18.819              0.648               
H              3.233               19.05               -0.831              
H              2.587               20.31               -0.018              
H              0.165               17.409              -1.683              
H              1.792               17.313              -1.802              
H              1.059               17.025              -0.37               
N              -3.649              19.985              0.054               
H              -3.517              20.684              -0.722              
H              -0.792143           15.6531             -7.34412            
H              -4.51982            19.8587             0.531388            
