280
0.xyz
N              -13.16              -47.345             -6.302              
C              -13.214             -48.006             -4.989              
C              -11.934             -48.79              -4.668              
O              -11.714             -49.898             -5.156              
C              -14.414             -48.942             -4.889              
C              -14.604             -49.56              -3.521              
C              -15.528             -50.811             -3.568              
N              -15.478             -51.487             -2.278              
C              -16.009             -50.964             -1.18               
N              -16.652             -49.795             -1.242              
N              -15.879             -51.577             -0.021              
H              -12.339             -47.637             -6.792              
H              -13.342             -47.298             -4.278              
H              -15.235             -48.422             -5.112              
H              -14.29              -49.679             -5.549              
H              -13.728             -49.857             -3.152              
H              -15.031             -48.905             -2.904              
H              -16.439             -50.495             -3.75               
H              -15.184             -51.4               -4.274              
H              -15.029             -52.373             -2.219              
H              -16.759             -49.314             -2.105              
H              -17.034             -49.398             -0.4                
H              -15.391             -52.456             0.027               
H              -16.261             -51.178             0.811               
H              -13.969             -47.591             -6.836              
H              -13.135             -46.353             -6.179              
N              -11.108             -48.201             -3.83               
C              -9.839              -48.776             -3.426              
C              -8.775              -48.247             -4.33               
O              -8.972              -47.983             -5.525              
H              -11.447             -47.27              -3.474              
H              -9.644              -48.521             -2.479              
H              -9.887              -49.773             -3.497              
N              -7.614              -48.066             -3.731              
C              -6.414              -47.726             -4.445              
C              -6.081              -48.822             -5.445              
O              -6.35               -50.006             -5.213              
C              -5.279              -47.591             -3.455              
H              -7.646              -48.193             -2.687              
H              -6.558              -46.869             -4.95               
H              -5.263              -46.662             -3.082              
H              -5.403              -48.244             -2.706              
H              -4.407              -47.776             -3.911              
N              -5.455              -48.425             -6.539              
C              -5.071              -49.363             -7.586              
C              -3.646              -49.841             -7.3                
O              -2.672              -49.096             -7.48               
C              -5.163              -48.672             -8.944              
C              -5.057              -49.593             -10.107             
C              -3.857              -50.189             -10.447             
C              -6.146              -49.816             -10.931             
C              -3.76               -51.008             -11.554             
C              -6.045              -50.63              -12.023             
C              -4.864              -51.228             -12.338             
H              -5.263              -47.404             -6.589              
H              -5.662              -50.16              -7.5                
H              -6.042              -48.213             -8.988              
H              -4.421              -48.015             -8.997              
H              -3.046              -50.028             -9.885              
H              -7.021              -49.369             -10.716             
H              -2.874              -51.438             -11.778             
H              -6.873              -50.786             -12.609             
H              -4.792              -51.83              -13.14              
N              -3.531              -51.082             -6.836              
C              -2.246              -51.614             -6.381              
C              -1.68               -52.651             -7.335              
O              -2.4                -53.346             -8.059              
C              -2.383              -52.269             -5                  
C              -3.021              -51.415             -3.915              
C              -3.066              -52.206             -2.621              
C              -2.302              -50.1               -3.712              
H              -4.412              -51.629             -6.825              
H              -1.59               -50.846             -6.315              
H              -2.942              -53.087             -5.109              
H              -1.469              -52.517             -4.692              
H              -3.947              -51.174             -4.189              
H              -2.136              -52.456             -2.347              
H              -3.485              -51.65              -1.901              
H              -3.607              -53.038             -2.754              
H              -2.315              -49.571             -4.563              
H              -2.756              -49.573             -2.99               
H              -1.351              -50.271             -3.446              
N              -0.359              -52.809             -7.255              
C              0.317               -53.958             -7.799              
C              1.415               -54.384             -6.845              
O              1.847               -53.608             -5.99               
C              0.856               -53.705             -9.213              
O              1.872               -52.724             -9.211              
H              0.133               -52.026             -6.764              
H              -0.34               -54.712             -7.869              
H              1.226               -54.559             -9.57               
H              0.103               -53.395             -9.789              
H              2.146               -52.526             -8.27               
N              1.871               -55.617             -7.01               
C              3.033               -56.122             -6.275              
C              4.015               -56.7               -7.255              
O              3.604               -57.23              -8.299              
C              2.648               -57.193             -5.255              
C              1.782               -56.689             -4.131              
C              1.584               -57.748             -3.082              
N              2.838               -58.208             -2.499              
C              2.94                -59.105             -1.515              
N              1.865               -59.631             -0.981              
N              4.125               -59.471             -1.056              
H              1.341               -56.192             -7.698              
H              3.459               -55.358             -5.79               
H              2.153               -57.913             -5.736              
H              3.488               -57.563             -4.864              
H              2.215               -55.898             -3.703              
H              0.887               -56.43              -4.489              
H              1.006               -57.37              -2.356              
H              1.115               -58.527             -3.505              
H              3.698               -57.821             -2.864              
H              0.949               -59.394             -1.305              
H              1.952               -60.295             -0.223              
H              4.954               -59.08              -1.471              
H              4.201               -60.126             -0.311              
N              5.295               -56.603             -6.908              
C              6.372               -57.026             -7.776              
C              7.501               -57.647             -7                  
O              7.776               -57.265             -5.867              
C              6.958               -55.826             -8.533              
C              5.931               -55.05              -9.284              
H              5.45                -56.195             -5.956              
H              6.009               -57.716             -8.423              
H              7.404               -55.214             -7.874              
H              7.646               -56.16              -9.183              
N              5.71                -55.194             -10.633             
C              4.983               -54.186             -8.845              
C              4.687               -54.433             -10.989             
N              4.229               -53.803             -9.924              
H              6.237               -55.78              -11.247             
H              4.857               -53.881             -7.9                
H              4.322               -54.349             -11.916             
N              8.202               -58.572             -7.639              
C              9.515               -58.948             -7.176              
C              10.506              -57.845             -7.55               
O              10.156              -56.887             -8.244              
C              9.893               -60.317             -7.75               
O              9.481               -60.467             -9.093              
H              7.737               -58.982             -8.467              
H              9.498               -59.013             -6.178              
H              10.887              -60.421             -7.7                
H              9.458               -61.027             -7.194              
H              10.2                -60.134             -9.703              
N              11.755              -57.985             -7.108              
C              12.739              -56.931             -7.319              
C              13.117              -56.692             -8.764              
O              13.582              -55.609             -9.091              
C              13.992              -57.17              -6.481              
C              13.774              -57.162             -4.969              
C              15.051              -57.57              -4.236              
C              13.28               -55.797             -4.476              
H              11.954              -58.872             -6.622              
H              12.358              -56.06              -6.937              
H              14.358              -58.061             -6.724              
H              14.644              -56.453             -6.692              
H              13.044              -57.805             -4.74               
H              15.782              -56.927             -4.461              
H              14.886              -57.558             -3.251              
H              15.316              -58.491             -4.52               
H              12.413              -55.58              -4.922              
H              13.15               -55.832             -3.486              
H              13.959              -55.1               -4.702              
N              12.934              -57.694             -9.614              
C              13.114              -57.568             -11.057             
C              11.906              -56.928             -11.744             
O              11.818              -56.904             -12.978             
C              13.387              -58.954             -11.645             
C              12.288              -59.961             -11.321             
O              11.228              -59.544             -10.83              
O              12.477              -61.172             -11.567             
H              12.646              -58.596             -9.157              
H              13.899              -56.948             -11.208             
H              13.452              -58.864             -12.632             
H              14.242              -59.287             -11.268             
N              10.975              -56.43              -10.918             
C              9.761               -55.754             -11.349             
C              8.746               -56.678             -12.007             
O              7.734               -56.192             -12.509             
C              10.041              -54.518             -12.225             
C              10.686              -53.393             -11.436             
S              9.778               -52.873             -9.939              
C              8.222               -52.342             -10.648             
H              11.21               -56.577             -9.896              
H              9.321               -55.343             -10.528             
H              10.654              -54.783             -12.969             
H              9.176               -54.191             -12.605             
H              11.649              -53.679             -11.185             
H              10.821              -52.583             -12.068             
H              7.582               -52.104             -9.915              
H              8.373               -51.54              -11.229             
H              7.834               -53.082             -11.2               
N              8.924               -57.997             -11.934             
C              7.868               -58.861             -12.411             
C              6.639               -58.731             -11.537             
O              6.728               -58.754             -10.313             
C              8.333               -60.311             -12.459             
C              9.378               -60.558             -13.53              
C              9.766               -62.027             -13.554             
C              10.669              -62.354             -14.703             
N              10.991              -63.816             -14.73              
H              9.809               -58.308             -11.54              
H              7.625               -58.596             -13.353             
H              8.726               -60.544             -11.577             
H              7.545               -60.887             -12.649             
H              9.003               -60.309             -14.418             
H              10.187              -60.013             -13.332             
H              10.234              -62.245             -12.697             
H              8.932               -62.575             -13.627             
H              10.222              -62.109             -15.565             
H              11.524              -61.84              -14.618             
H              11.198              -64.122             -13.803             
H              10.204              -64.318             -15.084             
H              11.782              -63.966             -15.32              
N              5.479               -58.628             -12.159             
C              4.242               -58.594             -11.422             
C              4.007               -59.898             -10.687             
O              4.08                -60.976             -11.278             
C              3.038               -58.416             -12.351             
C              2.85                -57.031             -12.919             
C              3.461               -56.652             -14.1               
C              1.996               -56.135             -12.306             
C              3.25                -55.392             -14.646             
C              1.772               -54.884             -12.848             
C              2.408               -54.508             -14.011             
H              5.54                -58.576             -13.194             
H              4.332               -57.876             -10.718             
H              3.149               -59.045             -13.115             
H              2.219               -58.645             -11.833             
H              4.065               -57.291             -14.576             
H              1.531               -56.396             -11.456             
H              3.717               -55.139             -15.501             
H              1.135               -54.243             -12.381             
H              2.259               -53.594             -14.396             
N              3.658               -59.793             -9.419              
C              3.131               -60.915             -8.648              
C              1.652               -60.724             -8.302              
O              0.98                -61.698             -7.969              
C              3.938               -61.165             -7.377              
O              3.873               -59.994             -6.58               
C              5.394               -61.458             -7.701              
H              3.79                -58.838             -9.009              
H              3.218               -61.754             -9.203              
H              3.513               -61.931             -6.86               
H              5.561               -62.446             -7.657              
H              5.611               -61.13              -8.624              
H              5.99                -60.995             -7.04               
H              3.769               -59.174             -7.158              
N              1.147               -59.495             -8.389              
C              -0.249              -59.182             -8.202              
C              -0.529              -57.939             -8.997              
O              0.301               -57.015             -9.051              
C              -0.579              -58.907             -6.714              
C              -1.902              -58.217             -6.488              
C              -3.109              -58.918             -6.51               
C              -1.955              -56.855             -6.309              
C              -4.309              -58.271             -6.325              
C              -3.134              -56.196             -6.136              
C              -4.326              -56.898             -6.154              
O              -5.533              -56.259             -5.994              
H              1.874               -58.76              -8.611              
H              -0.795              -59.927             -8.574              
H              -0.592              -59.784             -6.239              
H              0.146               -58.331             -6.344              
H              -3.096              -59.909             -6.664              
H              -1.09               -56.331             -6.305              
H              -5.169              -58.788             -6.312              
H              -3.15               -55.2               -5.995              
H              -6.016              -56.247             -6.868              
N              -1.715              -57.894             -9.602              
C              -2.197              -56.672             -10.221             
C              -1.956              -56.692             -11.725             
S              -2.316              -55.087             -12.513             
H              -2.244              -58.784             -9.59               
H              -1.709              -55.896             -9.814              
H              -1.005              -56.905             -11.892             
H              -2.551              -57.37              -12.133             
H              -3.295              -54.908             -12.454             
H              -3.26054            -56.5506            -10.0163            
