370
2.xyz
C              -6.56               -59.273             -17.138             
C              -5.285              -59.394             -16.301             
O              -4.188              -59.451             -16.852             
C              -7.225              -60.621             -17.246             
O              -6.264              -61.552             -17.659             
H              -7.155              -58.612             -16.696             
H              -7.577              -60.883             -16.36              
H              -7.947              -60.575             -17.92              
H              -5.806              -61.226             -18.488             
N              -5.407              -59.485             -14.968             
C              -4.176              -59.629             -14.171             
C              -3.374              -60.839             -14.578             
O              -2.149              -60.786             -14.574             
C              -4.695              -59.764             -12.745             
C              -5.963              -59.027             -12.756             
C              -6.589              -59.274             -14.114             
H              -3.621              -58.784             -14.232             
H              -4.832              -60.732             -12.512             
H              -4.041              -59.367             -12.094             
H              -6.582              -59.349             -12.025             
H              -5.813              -58.037             -12.618             
H              -7.166              -60.084             -14.103             
H              -7.11               -58.483             -14.421             
N              -4.057              -61.915             -14.963             
C              -3.411              -63.131             -15.418             
C              -2.461              -62.853             -16.578             
O              -1.464              -63.545             -16.729             
C              -4.491              -64.145             -15.849             
C              -3.967              -65.542             -16.053             
O              -3.223              -66.045             -15.178             
O              -4.362              -66.16              -17.077             
H              -5.096              -61.804             -14.908             
H              -2.848              -63.478             -14.656             
H              -5.19               -64.158             -15.136             
H              -4.887              -63.815             -16.703             
N              -2.76               -61.85              -17.407             
C              -1.89               -61.519             -18.538             
C              -0.546              -60.936             -18.092             
O              0.437               -61.003             -18.814             
C              -2.555              -60.504             -19.479             
C              -3.822              -61.033             -20.143             
O              -3.86               -62.224             -20.514             
O              -4.785              -60.255             -20.323             
H              -3.632              -61.344             -17.187             
H              -1.689              -62.384             -19.022             
H              -2.79               -59.698             -18.944             
H              -1.9                -60.268             -20.188             
N              -0.516              -60.31              -16.931             
C              0.674               -59.587             -16.482             
C              1.521               -60.355             -15.488             
O              2.706               -60.071             -15.362             
C              0.277               -58.248             -15.863             
C              -0.382              -57.267             -16.83              
C              -0.767              -56.015             -16.094             
C              0.526               -56.924             -17.998             
H              -1.388              -60.37              -16.372             
H              1.245               -59.379             -17.3               
H              -0.37               -58.428             -15.134             
H              1.097               -57.817             -15.513             
H              -1.195              -57.696             -17.219             
H              0.048               -55.586             -15.695             
H              -1.201              -55.365             -16.724             
H              -1.412              -56.234             -15.357             
H              0.751               -57.758             -18.505             
H              0.061               -56.281             -18.608             
H              1.369               -56.506             -17.657             
N              0.946               -61.286             -14.745             
C              1.723               -61.963             -13.724             
C              2.907               -62.68              -14.353             
O              2.774               -63.361             -15.37              
C              0.875               -62.957             -12.939             
C              -0.348              -62.288             -12.313             
C              1.698               -63.645             -11.857             
C              -0.037              -61.069             -11.501             
H              -0.041              -61.474             -14.945             
H              2.103               -61.247             -13.133             
H              0.548               -63.66              -13.573             
H              -0.981              -62.042             -13.051             
H              -0.804              -62.964             -11.727             
H              1.139               -64.337             -11.404             
H              2.495               -64.08              -12.271             
H              1.999               -62.969             -11.187             
H              0.406               -60.381             -12.079             
H              -0.883              -60.687             -11.125             
H              0.578               -61.311             -10.748             
N              4.072               -62.496             -13.755             
C              5.303               -63.101             -14.209             
C              6.004               -62.304             -15.283             
O              7.085               -62.681             -15.713             
H              4.023               -61.865             -12.912             
H              5.933               -63.22              -13.415             
H              5.108               -64.039             -14.561             
N              5.41                -61.196             -15.705             
C              6.008               -60.326             -16.704             
C              6.634               -59.134             -16.014             
O              6.073               -58.558             -15.097             
C              4.957               -59.849             -17.71              
S              4.158               -61.21              -18.579             
H              4.484               -61.005             -15.261             
H              6.731               -60.835             -17.174             
H              4.265               -59.341             -17.216             
H              5.409               -59.271             -18.378             
H              3.166               -61.076             -18.573             
N              7.816               -58.743             -16.459             
C              8.494               -57.57              -15.91              
C              7.831               -56.279             -16.305             
O              7.588               -56.03              -17.476             
C              9.927               -57.514             -16.391             
O              10.596              -56.398             -15.85              
H              8.217               -59.328             -17.218             
H              8.467               -57.646             -14.898             
H              10.4                -58.345             -16.106             
H              9.934               -57.445             -17.386             
H              10.938              -56.62              -14.937             
N              7.571               -55.435             -15.326             
C              6.973               -54.152             -15.619             
C              7.835               -53.322             -16.539             
O              7.298               -52.473             -17.238             
C              6.702               -53.371             -14.332             
H              7.821               -55.757             -14.38              
H              6.075               -54.305             -16.066             
H              5.832               -52.888             -14.416             
H              6.66                -54.006             -13.563             
H              7.438               -52.713             -14.184             
N              9.145               -53.559             -16.574             
C              10.001              -52.804             -17.475             
C              9.551               -52.93              -18.919             
O              9.716               -52.006             -19.714             
C              11.432              -53.31              -17.363             
C              12.132              -52.995             -16.061             
C              12.465              -51.688             -15.741             
C              12.527              -54.01              -15.19              
C              13.141              -51.391             -14.567             
C              13.206              -53.73              -14.018             
C              13.515              -52.417             -13.719             
O              14.187              -52.096             -12.557             
H              9.479               -54.292             -15.934             
H              9.953               -51.828             -17.214             
H              11.424              -54.308             -17.477             
H              11.969              -52.904             -18.109             
H              12.216              -50.945             -16.365             
H              12.312              -54.96              -15.42              
H              13.355              -50.441             -14.336             
H              13.47               -54.464             -13.397             
H              14.075              -51.122             -12.375             
N              8.975               -54.077             -19.275             
C              8.523               -54.317             -20.64              
C              7.319               -53.475             -21.03              
O              6.997               -53.379             -22.209             
C              8.18                -55.791             -20.812             
C              9.39                -56.677             -20.644             
C              9.139               -58.128             -20.987             
O              8.2                 -58.414             -21.754             
O              9.908               -58.986             -20.501             
H              8.879               -54.771             -18.508             
H              9.287               -54.131             -21.286             
H              7.532               -56.03              -20.119             
H              7.838               -55.916             -21.719             
H              10.103              -56.349             -21.246             
H              9.676               -56.642             -19.698             
N              6.666               -52.861             -20.056             
C              5.442               -52.083             -20.274             
C              5.657               -50.583             -20.12              
O              4.72                -49.814             -20.217             
C              4.342               -52.551             -19.312             
C              3.992               -53.998             -19.522             
C              4.745               -54.986             -18.929             
C              2.945               -54.375             -20.338             
C              4.471               -56.29              -19.122             
C              2.649               -55.698             -20.54              
C              3.422               -56.659             -19.922             
O              3.156               -57.991             -20.114             
H              7.097               -52.976             -19.107             
H              5.123               -52.261             -21.22              
H              4.672               -52.435             -18.387             
H              3.535               -52.003             -19.477             
H              5.521               -54.716             -18.336             
H              2.394               -53.669             -20.788             
H              5.034               -57.008             -18.679             
H              1.886               -55.968             -21.126             
H              2.258               -58.206             -19.732             
N              6.888               -50.169             -19.865             
C              7.214               -48.747             -19.773             
C              7.644               -48.274             -21.142             
O              8.484               -48.896             -21.777             
C              8.379               -48.492             -18.791             
C              8.15                -49.135             -17.435             
C              8.627               -46.984             -18.647             
C              6.941               -48.736             -16.783             
H              7.589               -50.924             -19.738             
H              6.361               -48.281             -19.558             
H              9.207               -48.892             -19.194             
H              8.17                -50.138             -17.572             
H              8.954               -48.909             -16.861             
H              9.433               -46.838             -18.08              
H              8.774               -46.589             -19.55              
H              7.833               -46.561             -18.219             
H              6.125               -48.968             -17.337             
H              6.835               -49.192             -15.884             
H              6.919               -47.736             -16.619             
N              7.095               -47.162             -21.586             
C              7.514               -46.604             -22.859             
C              9.019               -46.379             -22.82              
O              9.573               -45.902             -21.821             
C              6.796               -45.298             -23.105             
C              6.879               -44.835             -24.513             
N              5.797               -44.824             -25.366             
C              7.92                -44.331             -25.208             
C              6.177               -44.336             -26.538             
N              7.46                -44.028             -26.466             
H              6.376               -46.742             -20.98              
H              7.314               -47.264             -23.581             
H              5.823               -45.402             -22.862             
H              7.193               -44.585             -22.513             
H              4.877               -45.133             -25.137             
H              8.851               -44.203             -24.875             
H              5.594               -44.223             -27.337             
N              9.688               -46.693             -23.919             
C              11.132              -46.515             -23.989             
C              11.591              -45.097             -23.641             
O              12.663              -44.923             -23.058             
C              11.633              -46.896             -25.373             
H              9.116               -47.063             -24.696             
H              11.572              -47.16              -23.337             
H              10.897              -46.78              -26.039             
H              12.403              -46.309             -25.624             
H              11.931              -47.851             -25.37              
N              10.785              -44.091             -23.964             
C              11.152              -42.708             -23.645             
C              11.218              -42.47              -22.136             
O              11.857              -41.513             -21.709             
C              10.17               -41.716             -24.255             
C              10.242              -41.608             -25.773             
C              9.088               -40.776             -26.289             
C              11.529              -40.984             -26.217             
H              9.912               -44.356             -24.441             
H              12.063              -42.522             -24.036             
H              9.253               -42.008             -24.02              
H              10.366              -40.821             -23.882             
H              10.196              -42.525             -26.167             
H              9.13                -39.857             -25.894             
H              9.139               -40.708             -27.287             
H              8.22                -41.205             -26.033             
H              12.308              -41.537             -25.906             
H              11.557              -40.922             -27.22              
H              11.616              -40.059             -25.834             
N              10.503              -43.273             -21.352             
C              10.411              -43.079             -19.905             
C              11.212              -44.1               -19.124             
O              11.27               -44.017             -17.911             
C              8.944               -43.131             -19.481             
C              8.11                -42.096             -20.158             
O              8.592               -40.954             -20.287             
O              6.968               -42.412             -20.568             
H              10.017              -44.047             -21.854             
H              10.808              -42.168             -19.704             
H              8.596               -44.037             -19.709             
H              8.909               -42.991             -18.495             
N              11.846              -45.041             -19.812             
C              12.511              -46.133             -19.129             
C              13.606              -45.658             -18.187             
O              13.711              -46.143             -17.062             
C              13.082              -47.119             -20.143             
O              12.032              -47.806             -20.803             
H              11.823              -44.928             -20.838             
H              11.819              -46.626             -18.574             
H              13.614              -46.619             -20.815             
H              13.65               -47.779             -19.666             
H              11.31               -47.159             -21.044             
N              14.436              -44.72              -18.63              
C              15.509              -44.289             -17.776             
C              14.987              -43.616             -16.516             
O              15.48               -43.869             -15.42              
C              16.457              -43.345             -18.503             
C              17.605              -42.934             -17.621             
O              18.574              -43.718             -17.487             
O              17.506              -41.858             -16.999             
H              14.247              -44.364             -19.569             
H              16.015              -45.113             -17.478             
H              16.813              -43.818             -19.297             
H              15.947              -42.539             -18.767             
N              13.99               -42.745             -16.661             
C              13.462              -42.048             -15.497             
C              12.821              -43.029             -14.521             
O              12.992              -42.904             -13.306             
C              12.454              -40.997             -15.922             
H              13.647              -42.618             -17.619             
H              14.219              -41.578             -15.027             
H              12.93               -40.149             -16.158             
H              11.945              -41.322             -16.719             
H              11.816              -40.82              -15.172             
N              12.104              -44.024             -15.038             
C              11.507              -45.012             -14.155             
C              12.598              -45.832             -13.466             
O              12.503              -46.074             -12.27              
C              10.453              -45.862             -14.877             
C              9.974               -47.002             -13.988             
C              9.282               -44.98              -15.319             
H              12.018              -44.027             -16.059             
H              10.99               -44.53              -13.442             
H              10.888              -46.278             -15.672             
H              10.463              -47.84              -14.229             
H              10.152              -46.776             -13.031             
H              8.993               -47.139             -14.121             
H              8.627               -45.538             -15.826             
H              8.844               -44.592             -14.51              
H              9.628               -44.248             -15.903             
N              13.658              -46.215             -14.168             
C              14.785              -46.856             -13.499             
C              15.393              -46.005             -12.396             
O              15.733              -46.537             -11.354             
C              15.874              -47.241             -14.498             
O              15.534              -48.432             -15.174             
H              13.616              -46.028             -15.177             
H              14.448              -47.717             -13.078             
H              15.975              -46.506             -15.161             
H              16.727              -47.378             -14.004             
H              14.619              -48.726             -14.897             
N              15.547              -44.708             -12.622             
C              16.076              -43.86              -11.578             
C              15.174              -43.863             -10.352             
O              15.651              -43.86              -9.221              
C              16.277              -42.449             -12.094             
C              17.499              -42.284             -12.937             
C              17.723              -40.806             -13.238             
C              19.171              -40.53              -13.421             
N              19.61               -41.316             -14.579             
H              15.27               -44.383             -13.556             
H              16.988              -44.199             -11.305             
H              15.474              -42.199             -12.637             
H              16.344              -41.836             -11.304             
H              18.296              -42.631             -12.451             
H              17.386              -42.768             -13.8               
H              17.232              -40.58              -14.071             
H              17.376              -40.275             -12.473             
H              19.309              -39.567             -13.603             
H              19.672              -40.817             -12.617             
H              19.75               -40.713             -15.369             
H              20.472              -41.783             -14.368             
H              18.915              -42.002             -14.811             
N              13.863              -43.857             -10.575             
C              12.908              -43.938             -9.477              
C              13.072              -45.254             -8.728              
O              13.016              -45.289             -7.505              
C              11.476              -43.82              -9.999              
O              11.243              -42.602             -10.69              
H              13.589              -43.791             -11.572             
H              13.105              -43.191             -8.835              
H              11.296              -44.584             -10.622             
H              10.845              -43.875             -9.222              
H              11.756              -42.603             -11.547             
N              13.265              -46.343             -9.458              
C              13.461              -47.652             -8.836              
C              13.371              -48.77              -9.885              
C              11.927              -48.85              -10.401             
C              13.858              -50.104             -9.314              
C              11.755              -49.642             -11.651             
H              13.265              -46.193             -10.483             
H              12.722              -47.761             -8.168              
H              13.953              -48.528             -10.645             
H              11.362              -49.246             -9.671              
H              11.608              -47.909             -10.557             
H              13.821              -50.8               -10.027             
H              14.797              -50.002             -8.993              
H              13.271              -50.371             -8.554              
H              12.057              -50.587             -11.503             
H              10.79               -49.648             -11.923             
H              12.299              -49.238             -12.39              
H              -6.28559            -58.8894            -18.0937            
H              14.4017             -47.6692            -8.26653            
