322
5.xyz
C              6.79                -47.548             -2.999              
O              7.399               -46.569             -2.558              
N              6.761               -48.737             -2.416              
C              7.546               -49.05              -1.244              
C              8.141               -50.429             -1.374              
O              7.551               -51.331             -1.973              
C              6.691               -48.982             0.04                
O              7.521               -49.215             1.173               
C              5.546               -49.995             0.036               
H              6.121               -49.426             -2.879              
H              8.296               -48.383             -1.171              
H              6.294               -48.046             0.117               
H              4.675               -49.519             0.168               
H              5.529               -50.48              -0.84               
H              5.678               -50.655             0.777               
H              7.797               -50.182             1.217               
N              9.312               -50.613             -0.77               
C              9.815               -51.952             -0.516              
C              9.046               -52.547             0.648               
O              8.477               -51.817             1.476               
C              11.331              -51.973             -0.267              
C              12.047              -51.353             -1.44               
C              11.724              -51.295             1.053               
H              9.812               -49.748             -0.508              
H              9.639               -52.513             -1.324              
H              11.614              -52.924             -0.216              
H              11.383              -50.933             -2.062              
H              12.684              -50.649             -1.118              
H              12.56               -52.056             -1.937              
H              12.247              -50.47              0.85                
H              10.895              -51.059             1.555               
H              12.279              -51.928             1.589               
N              9.056               -53.871             0.699               
C              8.456               -54.636             1.787               
C              9.432               -55.738             2.129               
O              9.793               -56.559             1.284               
C              7.113               -55.241             1.4                 
C              6.536               -56.012             2.558               
C              6.141               -54.18              0.916               
H              9.536               -54.328             -0.116              
H              8.368               -54.039             2.574               
H              7.272               -55.893             0.662               
H              5.704               -55.561             2.889               
H              6.308               -56.945             2.268               
H              7.203               -56.056             3.306               
H              6.428               -53.853             0.015               
H              5.224               -54.574             0.853               
H              6.134               -53.417             1.563               
N              9.9                 -55.769             3.364               
C              10.782              -56.836             3.832               
C              10.13               -58.185             3.628               
O              8.93                -58.3               3.819               
C              11.076              -56.679             5.319               
O              11.537              -57.921             5.838               
H              9.593               -54.98              3.97                
H              11.622              -56.806             3.281               
H              11.782              -55.998             5.44                
H              10.244              -56.424             5.788               
H              12.069              -58.394             5.139               
N              10.905              -59.211             3.28                
C              10.353              -60.535             3.048               
C              10.462              -61.485             4.215               
O              9.955               -62.598             4.153               
H              11.914              -58.983             3.192               
H              9.366               -60.441             2.781               
H              10.817              -60.95              2.232               
N              11.153              -61.08              5.26                
C              11.317              -61.914             6.433               
C              12.497              -62.857             6.415               
O              12.768              -63.512             7.413               
H              11.564              -60.126             5.173               
H              11.385              -61.309             7.265               
H              10.455              -62.46              6.577               
N              13.229              -62.903             5.308               
C              14.348              -63.832             5.189               
C              15.679              -63.144             4.943               
O              16.68               -63.826             4.745               
C              14.09               -64.859             4.08                
C              12.846              -65.702             4.277               
C              12.694              -66.768             3.16                
N              12.527              -66.153             1.847               
C              11.367              -65.676             1.391               
N              10.263              -65.787             2.116               
N              11.299              -65.096             0.2                 
H              12.946              -62.246             4.564               
H              14.415              -64.369             6.051               
H              13.999              -64.365             3.217               
H              14.877              -65.471             4.036               
H              12.895              -66.187             5.144               
H              12.035              -65.127             4.248               
H              13.515              -67.325             3.17                
H              11.895              -67.314             3.381               
H              13.331              -66.084             1.25                
H              10.283              -66.209             3.02                
H              9.391               -65.44              1.752               
H              12.137              -65.002             -0.348              
H              10.432              -64.756             -0.148              
N              15.71               -61.815             4.997               
C              16.909              -61.051             4.69                
C              16.691              -60.239             3.429               
O              15.623              -60.291             2.834               
H              14.806              -61.374             5.277               
H              17.12               -60.435             5.453               
H              17.681              -61.677             4.556               
N              17.715              -59.49              2.997               
C              17.656              -58.601             1.826               
C              17.133              -59.255             0.546               
O              16.386              -58.639             -0.219              
C              19.114              -58.18              1.642               
C              19.677              -58.231             3.008               
C              19.006              -59.378             3.699               
H              17.109              -57.765             2.046               
H              19.588              -58.816             1.027               
H              19.167              -57.255             1.258               
H              20.679              -58.368             2.978               
H              19.501              -57.365             3.5                 
H              19.53               -60.225             3.603               
H              18.86               -59.189             4.672               
N              17.5                -60.505             0.319               
C              17.125              -61.159             -0.918              
C              15.627              -61.386             -1.032              
O              15.116              -61.631             -2.126              
C              17.861              -62.494             -1.05               
C              19.366              -62.361             -1.214              
C              20.068              -63.701             -1.268              
H              18.051              -60.95              1.067               
H              17.404              -60.559             -1.688              
H              17.684              -63.041             -0.229              
H              17.502              -62.981             -1.851              
H              19.553              -61.868             -2.064              
H              19.728              -61.841             -0.44               
O              19.562              -64.696             -0.748              
N              21.238              -63.734             -1.9                
H              21.773              -64.595             -1.964              
H              21.591              -62.876             -2.322              
N              14.925              -61.288             0.089               
C              13.518              -61.609             0.116               
C              12.647              -60.368             -0.008              
O              11.447              -60.484             0.055               
C              13.175              -62.381             1.389               
O              13.286              -61.584             2.563               
H              15.464              -60.97              0.916               
H              13.312              -62.208             -0.674              
H              12.234              -62.719             1.319               
H              13.799              -63.161             1.472               
H              14.187              -61.156             2.587               
N              13.237              -59.192             -0.187              
C              12.453              -57.973             -0.303              
C              11.561              -58.026             -1.533              
O              11.93               -58.632             -2.549              
C              13.426              -56.809             -0.408              
C              12.885              -55.488             -0.09               
C              13.988              -54.498             0.194               
O              14.251              -54.154             1.377               
O              14.601              -54.073             -0.777              
H              14.27               -59.221             -0.235              
H              11.884              -57.855             0.519               
H              14.18               -57.007             0.218               
H              13.765              -56.8               -1.348              
H              12.38               -55.141             -0.86               
H              12.332              -55.54              0.722               
N              10.407              -57.367             -1.448              
C              9.524               -57.212             -2.597              
C              9.056               -55.781             -2.668              
O              9.462               -54.963             -1.849              
C              8.334               -58.179             -2.51               
O              7.404               -57.816             -1.511              
H              10.196              -56.98              -0.506              
H              10.053              -57.412             -3.423              
H              7.871               -58.193             -3.399              
H              8.686               -59.097             -2.311              
H              7.204               -56.839             -1.578              
N              8.219               -55.466             -3.657              
C              7.783               -54.093             -3.92               
C              6.268               -54.062             -3.992              
O              5.646               -54.953             -4.57               
C              8.405               -53.6               -5.241              
C              9.92                -53.466             -5.074              
C              7.796               -52.27              -5.698              
C              10.676              -53.303             -6.378              
H              7.901               -56.281             -4.228              
H              8.046               -53.56              -3.119              
H              8.231               -54.284             -5.935              
H              10.105              -52.675             -4.492              
H              10.257              -54.286             -4.61               
H              8.198               -52.008             -6.572              
H              6.81                -52.378             -5.801              
H              7.988               -51.569             -5.015              
H              10.357              -52.48              -6.844              
H              11.652              -53.223             -6.185              
H              10.512              -54.101             -6.956              
N              5.685               -53.023             -3.409              
C              4.25                -52.746             -3.554              
C              4.087               -51.344             -4.119              
O              4.775               -50.418             -3.685              
C              3.503               -52.862             -2.206              
C              2.028               -52.552             -2.382              
C              3.717               -54.233             -1.634              
H              6.322               -52.424             -2.844              
H              3.876               -53.394             -4.212              
H              3.878               -52.171             -1.595              
H              1.482               -53.339             -2.092              
H              1.783               -51.757             -1.826              
H              1.838               -52.354             -3.344              
H              3.783               -54.905             -2.376              
H              4.566               -54.25              -1.099              
H              2.948               -54.477             -1.037              
N              3.175               -51.212             -5.083              
C              2.931               -49.964             -5.785              
C              1.478               -49.572             -5.689              
O              0.585               -50.42              -5.705              
C              3.231               -50.138             -7.282              
S              4.915               -50.525             -7.696              
H              2.647               -52.096             -5.29               
H              3.484               -49.243             -5.348              
H              2.63                -50.872             -7.623              
H              2.967               -49.279             -7.74               
H              4.95                -51.33              -8.297              
N              1.248               -48.27              -5.645              
C              -0.048              -47.679             -5.896              
C              0.088               -46.795             -7.125              
O              1.065               -46.058             -7.274              
C              -0.605              -46.887             -4.682              
C              0.318               -45.818             -4.185              
C              -1.983              -46.304             -4.968              
H              2.1                 -47.695             -5.409              
H              -0.693              -48.405             -6.11               
H              -0.734              -47.552             -3.934              
H              0.234               -45.723             -3.189              
H              1.269               -46.05              -4.408              
H              0.092               -44.938             -4.613              
H              -1.983              -45.889             -5.877              
H              -2.664              -47.035             -4.931              
H              -2.196              -45.61              -4.281              
N              -0.896              -46.888             -8.009              
C              -0.86               -46.239             -9.291              
C              -1.995              -45.259             -9.46               
O              -3.088              -45.456             -8.939              
C              -0.965              -47.283             -10.399             
C              0.064               -48.346             -10.305             
H              -1.703              -47.48              -7.684              
H              0.014               -45.729             -9.373              
H              -1.875              -47.711             -10.357             
H              -0.871              -46.822             -11.289             
N              1.393               -48.126             -10.597             
C              -0.052              -49.641             -9.943              
C              2.042               -49.266             -10.432             
N              1.19                -50.201             -10.052             
H              -0.887              -50.103             -9.652              
H              3.024               -49.4               -10.574             
H              1.419               -51.159             -9.873              
N              -1.734              -44.233             -10.269             
C              -2.668              -43.166             -10.557             
C              -2.713              -42.962             -12.051             
O              -1.681              -42.987             -12.728             
C              -2.211              -41.882             -9.859              
C              -2.011              -42.065             -8.393              
C              -3.063              -41.92              -7.51               
C              -0.775              -42.449             -7.895              
C              -2.877              -42.132             -6.145              
C              -0.585              -42.65              -6.525              
C              -1.632              -42.483             -5.664              
H              -0.764              -44.27              -10.689             
H              -3.574              -43.483             -10.277             
H              -1.352              -41.613             -10.26              
H              -2.911              -41.202             -9.996              
H              -3.966              -41.664             -7.841              
H              -0.007              -42.586             -8.52               
H              -3.66               -42.024             -5.519              
H              0.334               -42.917             -6.191              
H              -1.505              -42.615             -4.674              
N              -3.905              -42.745             -12.574             
C              -4.049              -42.477             -13.991             
C              -3.995              -40.974             -14.191             
O              -4.795              -40.23              -13.631             
C              -5.364              -43.047             -14.499             
C              -5.606              -43.151             -16.006             
C              -4.579              -44.063             -16.667             
C              -7.025              -43.648             -16.277             
H              -4.696              -42.782             -11.91              
H              -3.284              -42.89              -14.478             
H              -5.462              -43.981             -14.122             
H              -6.112              -42.483             -14.12              
H              -5.544              -42.236             -16.409             
H              -4.642              -44.978             -16.27              
H              -4.761              -44.113             -17.649             
H              -3.661              -43.696             -16.516             
H              -7.682              -43.007             -15.882             
H              -7.171              -43.712             -17.264             
H              -7.146              -44.549             -15.862             
N              -3.033              -40.533             -14.974             
C              -2.895              -39.111             -15.257             
C              -3.794              -38.679             -16.407             
O              -4.337              -37.573             -16.399             
C              -1.417              -38.77              -15.518             
C              -0.558              -39.168             -14.311             
C              -1.223              -37.299             -15.835             
C              -0.963              -38.566             -12.958             
H              -2.403              -41.257             -15.36              
H              -3.223              -38.626             -14.437             
H              -1.112              -39.301             -16.3               
H              -0.573              -40.172             -14.226             
H              0.395               -38.897             -14.499             
H              -0.262              -37.125             -16.047             
H              -1.786              -37.048             -16.622             
H              -1.493              -36.747             -15.047             
H              -1.893              -38.851             -12.746             
H              -0.335              -38.896             -12.26              
H              -0.914              -37.574             -13.022             
N              -3.961              -39.565             -17.379             
C              -4.876              -39.299             -18.495             
C              -5.44               -40.618             -18.989             
O              -4.7                -41.577             -19.198             
C              -4.161              -38.548             -19.637             
O              -5.053              -38.198             -20.689             
O              -6.603              -40.938             -19.243             
H              -3.41               -40.433             -17.289             
H              -5.631              -38.746             -18.148             
H              -3.756              -37.716             -19.264             
H              -3.444              -39.138             -20.003             
H              -5.86               -37.754             -20.304             
H              6.27349             -47.5138            -3.90917            
