226
2.xyz
C              -18.094             -7.452              -34.926             
C              -18.663             -6.124              -34.438             
O              -17.959             -5.098              -34.404             
C              -17.884             -8.467              -33.775             
C              -16.693             -8.179              -32.877             
C              -16.359             -9.332              -31.963             
H              -18.756             -7.859              -35.55              
H              -18.713             -8.473              -33.209             
H              -17.762             -9.378              -34.18              
H              -15.898             -7.985              -33.453             
H              -16.901             -7.375              -32.319             
O              -15.21              -9.808              -31.913             
N              -17.356             -9.81               -31.247             
H              -17.216             -10.603             -30.61              
H              -18.278             -9.384              -31.327             
N              -19.95              -6.139              -34.107             
C              -20.642             -4.951              -33.616             
C              -19.87              -4.32               -32.45              
O              -19.367             -5.024              -31.574             
C              -22.082             -5.291              -33.2               
C              -22.202             -6.217              -31.997             
C              -23.634             -6.441              -31.551             
O              -24.576             -6.091              -32.299             
O              -23.818             -6.969              -30.436             
H              -20.418             -7.063              -34.227             
H              -20.731             -4.278              -34.356             
H              -22.533             -4.443              -32.971             
H              -22.515             -5.738              -33.966             
H              -21.827             -7.093              -32.245             
H              -21.716             -5.809              -31.244             
N              -19.757             -2.995              -32.467             
C              -19.058             -2.27               -31.412             
C              -17.562             -2.101              -31.636             
O              -16.917             -1.355              -30.898             
H              -20.202             -2.53               -33.283             
H              -19.484             -1.346              -31.304             
H              -19.208             -2.751              -30.521             
N              -16.997             -2.786              -32.632             
C              -15.597             -2.564              -33.004             
C              -15.426             -1.138              -33.506             
O              -16.322             -0.596              -34.161             
C              -15.136             -3.539              -34.097             
C              -14.785             -4.919              -33.561             
O              -14.597             -5.083              -32.339             
O              -14.679             -5.855              -34.378             
H              -17.614             -3.466              -33.103             
H              -15.053             -2.652              -32.169             
H              -15.875             -3.631              -34.756             
H              -14.331             -3.152              -34.533             
N              -14.285             -0.535              -33.183             
C              -13.956             0.811               -33.636             
C              -12.908             0.708               -34.732             
O              -11.862             0.087               -34.544             
C              -13.433             1.697               -32.492             
O              -12.365             1.025               -31.809             
C              -14.543             1.997               -31.504             
H              -13.651             -1.106              -32.581             
H              -14.777             1.229               -34.02              
H              -13.062             2.562               -32.888             
H              -15.43              1.989               -31.972             
H              -14.551             1.305               -30.777             
H              -14.4               2.901               -31.092             
H              -12.734             0.403               -31.111             
N              -13.202             1.316               -35.88              
C              -12.376             1.163               -37.076             
C              -11.746             2.494               -37.469             
O              -12.407             3.531               -37.45              
C              -13.21              0.614               -38.248             
C              -13.731             -0.787              -37.911             
C              -12.389             0.573               -39.533             
C              -14.888             -1.236              -38.778             
H              -14.061             1.903               -35.852             
H              -11.622             0.552               -36.821             
H              -13.993             1.211               -38.374             
H              -12.978             -1.436              -38.012             
H              -14.026             -0.788              -36.956             
H              -12.962             0.247               -40.282             
H              -12.055             1.49                -39.743             
H              -11.614             -0.045              -39.412             
H              -14.599             -1.249              -39.734             
H              -15.172             -2.153              -38.502             
H              -15.651             -0.601              -38.667             
N              -10.464             2.443               -37.828             
C              -9.719              3.625               -38.256             
C              -9.906              3.788               -39.759             
O              -9.524              2.909               -40.525             
C              -8.223              3.47                -37.92              
C              -7.665              4.56                -37.023             
C              -6.453              4.094               -36.224             
C              -5.272              3.72                -37.102             
N              -3.973              3.975               -36.42              
H              -10.04              1.49                -37.777             
H              -10.09              4.427               -37.796             
H              -8.101              2.59                -37.464             
H              -7.715              3.474               -38.78              
H              -7.394              5.344               -37.589             
H              -8.378              4.856               -36.381             
H              -6.172              4.833               -35.609             
H              -6.714              3.294               -35.683             
H              -5.335              2.746               -37.336             
H              -5.31               4.259               -37.948             
H              -3.389              3.169               -36.508             
H              -3.525              4.761               -36.844             
H              -4.138              4.165               -35.453             
N              -10.514             4.896               -40.178             
C              -10.742             5.167               -41.599             
C              -9.801              6.263               -42.107             
O              -9.582              7.271               -41.43              
C              -12.22              5.539               -41.858             
C              -12.419             6.119               -43.253             
C              -13.103             4.311               -41.67              
H              -10.809             5.544               -39.42              
H              -10.543             4.326               -42.114             
H              -12.469             6.254               -41.206             
H              -11.624             5.904               -43.82              
H              -13.239             5.722               -43.665             
H              -12.525             7.111               -43.189             
H              -13.748             4.25                -42.431             
H              -12.529             3.493               -41.649             
H              -13.604             4.394               -40.809             
N              -9.262              6.049               -43.307             
C              -8.374              7.004               -43.968             
C              -9.04               7.509               -45.244             
O              -9.503              6.716               -46.062             
C              -7.041              6.341               -44.32              
C              -6.482              5.484               -43.222             
C              -5.921              6.06                -42.089             
C              -6.513              4.1                 -43.319             
C              -5.407              5.269               -41.075             
C              -5.999              3.306               -42.308             
C              -5.448              3.89                -41.186             
H              -9.531              5.132               -43.739             
H              -8.284              7.79                -43.358             
H              -7.188              5.768               -45.112             
H              -6.388              7.059               -44.512             
H              -5.888              7.052               -42.002             
H              -6.913              3.671               -44.131             
H              -5.004              5.704               -40.26              
H              -6.03               2.296               -42.4               
H              -5.077              3.322               -40.449             
N              -9.087              8.827               -45.412             
C              -9.732              9.429               -46.576             
C              -11.241             9.285               -46.52              
O              -11.82              9.145               -45.44              
H              -8.635              9.38                -44.659             
H              -9.49               10.409              -46.621             
H              -9.383              8.987               -47.415             
N              -11.874             9.302               -47.689             
C              -13.328             9.284               -47.785             
C              -13.827             8.031               -48.469             
O              -13.052             7.269               -49.042             
C              -13.816             10.512              -48.548             
C              -13.506             11.807              -47.826             
O              -13.278             11.776              -46.599             
O              -13.495             12.863              -48.487             
H              -11.247             9.329               -48.521             
H              -13.687             9.274               -46.84              
H              -13.365             10.524              -49.433             
H              -14.8               10.435              -48.659             
N              -15.137             7.832               -48.405             
C              -15.768             6.65                -48.975             
C              -15.762             6.732               -50.504             
O              -15.972             7.796               -51.078             
C              -17.158             6.449               -48.347             
C              -18.355             6.445               -49.276             
C              -19.635             6.263               -48.481             
C              -20.114             7.562               -47.862             
N              -21.361             7.35                -47.076             
H              -15.668             8.585               -47.918             
H              -15.252             5.835               -48.698             
H              -17.142             5.568               -47.846             
H              -17.291             7.183               -47.66              
H              -18.397             7.314               -49.761             
H              -18.267             5.694               -49.923             
H              -20.347             5.919               -49.091             
H              -19.47              5.604               -47.75              
H              -19.401             7.918               -47.257             
H              -20.294             8.225               -48.59              
H              -21.537             6.37                -46.992             
H              -21.251             7.749               -46.166             
H              -22.127             7.789               -47.545             
N              -15.471             5.606               -51.152             
C              -15.31              5.563               -52.608             
C              -16.678             5.505               -53.293             
O              -17.694             5.436               -52.631             
C              -14.386             4.394               -53.032             
C              -14.941             3.018               -52.667             
O              -16.157             2.896               -52.423             
O              -14.15              2.049               -52.617             
H              -15.369             4.768               -50.544             
H              -14.88              6.426               -52.885             
H              -14.273             4.442               -54.018             
H              -13.514             4.518               -52.575             
N              -16.662             5.499               -54.626             
C              -17.881             5.43                -55.428             
C              -18.724             4.186               -55.146             
O              -19.95              4.22                -55.279             
C              -17.534             5.491               -56.905             
H              -15.707             5.548               -55.045             
H              -18.447             6.251               -55.229             
H              -16.575             5.237               -57.036             
H              -18.117             4.856               -57.413             
H              -17.68              6.42                -57.246             
N              -18.066             3.091               -54.772             
C              -18.759             1.841               -54.45              
C              -19.436             1.868               -53.077             
O              -20.255             1                   -52.776             
C              -17.782             0.664               -54.519             
C              -17.206             0.465               -55.908             
O              -17.413             1.336               -56.776             
O              -16.547             -0.566              -56.135             
H              -17.033             3.197               -54.728             
H              -19.494             1.723               -55.138             
H              -17.038             0.846               -53.887             
H              -18.272             -0.157              -54.255             
N              -19.097             2.861               -52.256             
C              -19.67              3.01                -50.92              
C              -18.827             2.382               -49.822             
O              -19.339             2.082               -48.743             
H              -18.389             3.521               -52.648             
H              -19.795             4.001               -50.72              
H              -20.599             2.593               -50.908             
N              -17.535             2.183               -50.095             
H              -17.236             2.532               -51.033             
H              -16.9001            1.73129             -49.4448            
H              -17.2016            -7.25474            -35.4748            
