235
2.xyz
C              -18.41              26.11               -8.743              
C              -17.597             26.876              -7.688              
O              -17.34              26.378              -6.594              
C              -19.888             26.506              -8.613              
C              -20.592             25.878              -7.44               
C              -20.501             26.443              -6.179              
C              -21.378             24.747              -7.605              
C              -21.154             25.881              -5.099              
C              -22.036             24.18               -6.524              
C              -21.925             24.748              -5.273              
H              -18.058             26.411              -9.652              
H              -19.928             27.488              -8.504              
H              -20.35              26.217              -9.438              
H              -19.957             27.27               -6.045              
H              -21.472             24.337              -8.512              
H              -21.063             26.302              -4.187              
H              -22.597             23.345              -6.663              
H              -22.4               24.344              -4.489              
N              -17.208             28.099              -8.045              
C              -16.594             29.067              -7.131              
C              -17.617             30.095              -6.635              
O              -18.687             30.242              -7.226              
C              -15.412             29.766              -7.813              
C              -14.274             28.835              -8.23               
C              -13.201             29.546              -9.044              
H              -17.382             28.319              -9.061              
H              -16.254             28.563              -6.329              
H              -15.746             30.233              -8.636              
H              -15.035             30.45               -7.182              
H              -13.851             28.46               -7.407              
H              -14.654             28.095              -8.782              
O              -13.076             30.772              -8.998              
N              -12.408             28.773              -9.778              
H              -11.679             29.178              -10.357             
H              -12.543             27.764              -9.75               
N              -17.294             30.807              -5.558              
C              -18.175             31.869              -5.065              
C              -18.445             32.95               -6.097              
O              -17.523             33.442              -6.752              
C              -17.598             32.548              -3.822              
C              -17.02              31.652              -2.752              
C              -16.574             32.46               -1.554              
O              -16.764             33.695              -1.577              
O              -16.045             31.872              -0.589              
H              -16.398             30.555              -5.114              
H              -19.056             31.459              -4.765              
H              -16.871             33.16               -4.129              
H              -18.333             33.08               -3.406              
H              -17.716             31.036              -2.452              
H              -16.233             31.2                -3.114              
N              -19.717             33.308              -6.246              
C              -20.105             34.362              -7.163              
C              -20.639             33.85               -8.479              
O              -21.249             34.596              -9.242              
H              -20.39              32.776              -5.66               
H              -20.812             34.949              -6.719              
H              -19.302             34.966              -7.338              
N              -20.417             32.568              -8.737              
C              -20.922             31.919              -9.94               
C              -22.452             31.896              -9.938              
O              -23.073             31.657              -8.896              
C              -20.357             30.498              -10.027             
C              -18.875             30.479              -10.376             
O              -18.235             31.556              -10.387             
O              -18.332             29.374              -10.575             
H              -19.856             32.07               -8.013              
H              -20.64              32.48               -10.725             
H              -20.481             30.063              -9.144              
H              -20.856             30.011              -10.732             
N              -23.064             32.163              -11.092             
C              -24.524             32.132              -11.186             
C              -24.982             30.871              -11.906             
O              -24.553             30.577              -13.025             
C              -25.103             33.371              -11.911             
O              -24.9               33.255              -13.326             
C              -24.449             34.643              -11.399             
H              -22.441             32.385              -11.881             
H              -24.902             32.122              -10.256             
H              -26.108             33.411              -11.735             
H              -25.116             35.392              -11.395             
H              -24.111             34.501              -10.465             
H              -23.679             34.893              -11.991             
H              -24.866             32.287              -13.595             
N              -25.882             30.141              -11.265             
C              -26.292             28.837              -11.755             
C              -27.743             28.84               -12.22              
O              -28.636             29.353              -11.545             
C              -26.089             27.758              -10.671             
C              -24.641             27.783              -10.174             
C              -26.445             26.382              -11.204             
C              -24.368             26.801              -9.07               
H              -26.261             30.574              -10.399             
H              -25.73              28.649              -12.571             
H              -26.681             27.978              -9.907              
H              -24.042             27.585              -10.948             
H              -24.443             28.706              -9.845              
H              -26.341             25.704              -10.478             
H              -27.392             26.381              -11.524             
H              -25.839             26.149              -11.963             
H              -24.556             25.872              -9.392              
H              -23.409             26.866              -8.791              
H              -24.955             27.005              -8.286              
N              -27.94              28.281              -13.407             
C              -29.245             28.103              -14.023             
C              -29.896             26.882              -13.407             
O              -29.519             25.772              -13.738             
C              -29.069             27.879              -15.533             
C              -28.788             29.095              -16.418             
C              -30.041             29.884              -16.732             
C              -30.581             29.423              -18.085             
N              -31.753             30.204              -18.571             
H              -27.046             27.968              -13.879             
H              -29.809             28.904              -13.831             
H              -28.308             27.22               -15.662             
H              -29.912             27.431              -15.879             
H              -28.134             29.692              -15.944             
H              -28.375             28.779              -17.276             
H              -30.722             29.702              -16.046             
H              -29.819             30.839              -16.794             
H              -29.836             29.487              -18.767             
H              -30.842             28.447              -18.012             
H              -32.383             29.592              -19.048             
H              -32.217             30.623              -17.792             
H              -31.439             30.916              -19.197             
N              -30.871             27.066              -12.525             
C              -31.491             25.917              -11.867             
C              -32.877             25.678              -12.448             
O              -33.668             26.607              -12.595             
C              -31.575             26.11               -10.331             
C              -32.596             25.164              -9.719              
C              -30.205             25.912              -9.689              
H              -31.14              28.042              -12.353             
H              -30.93              25.109              -12.057             
H              -31.896             27.038              -10.164             
H              -32.133             24.343              -9.384              
H              -33.059             25.618              -8.957              
H              -33.27              24.906              -10.411             
H              -30.1               24.953              -9.429              
H              -29.495             26.163              -10.346             
H              -30.136             26.492              -8.878              
N              -33.154             24.424              -12.789             
C              -34.411             24.049              -13.422             
C              -35.257             23.205              -12.467             
O              -34.749             22.27               -11.849             
C              -34.139             23.282              -14.717             
C              -33.204             23.993              -15.67              
C              -33.622             25.109              -16.384             
C              -31.907             23.531              -15.861             
C              -32.758             25.757              -17.267             
C              -31.04              24.172              -16.741             
C              -31.467             25.286              -17.445             
H              -32.4               23.738              -12.566             
H              -34.924             24.896              -13.587             
H              -33.725             22.417              -14.478             
H              -35.002             23.152              -15.182             
H              -34.547             25.457              -16.268             
H              -31.59              22.725              -15.358             
H              -33.083             26.565              -17.771             
H              -30.099             23.817              -16.862             
H              -30.85              25.751              -18.078             
N              -36.535             23.541              -12.318             
C              -37.393             22.778              -11.425             
C              -37.209             23.165              -9.968              
O              -36.837             24.297              -9.661              
H              -36.846             24.353              -12.867             
H              -38.362             22.92               -11.688             
H              -37.197             21.789              -11.535             
N              -37.44              22.214              -9.067              
C              -37.339             22.479              -7.639              
C              -36.228             21.661              -7.012              
O              -35.637             20.791              -7.653              
C              -38.638             22.11               -6.911              
C              -39.826             22.95               -7.324              
O              -39.699             24.189              -7.405              
O              -40.901             22.355              -7.551              
H              -37.692             21.289              -9.464              
H              -37.09              23.45               -7.533              
H              -38.836             21.152              -7.109              
H              -38.483             22.228              -5.933              
N              -35.959             21.945              -5.743              
C              -35.018             21.171              -4.947              
C              -35.532             19.739              -4.875              
O              -36.741             19.525              -4.739              
C              -34.87              21.772              -3.548              
C              -33.645             21.316              -2.768              
C              -33.755             21.755              -1.313              
C              -34.125             23.229              -1.228              
N              -33.997             23.784              0.149               
H              -36.48              22.77               -5.367              
H              -34.13              21.171              -5.397              
H              -34.828             22.771              -3.64               
H              -35.688             21.53               -3.017              
H              -33.587             20.324              -2.802              
H              -32.832             21.725              -3.168              
H              -34.464             21.224              -0.87               
H              -32.88              21.622              -0.87               
H              -33.526             23.75               -1.849              
H              -35.077             23.344              -1.541              
H              -33.915             24.779              0.098               
H              -34.808             23.541              0.68                
H              -33.183             23.402              0.585               
N              -34.644             18.758              -4.99               
C              -35.093             17.375              -4.887              
C              -35.108             16.97               -3.413              
O              -34.733             17.758              -2.547              
C              -34.198             16.433              -5.69               
C              -32.835             16.253              -5.065              
O              -32.352             17.183              -4.399              
O              -32.239             15.174              -5.243              
H              -33.676             19.044              -5.148              
H              -36.038             17.342              -5.208              
H              -34.649             15.549              -5.738              
H              -34.087             16.816              -6.6                
N              -35.565             15.756              -3.129              
C              -35.679             15.266              -1.754              
C              -34.348             15.165              -1.028              
O              -34.3               15.144              0.203               
C              -36.355             13.926              -1.744              
H              -35.833             15.186              -3.959              
H              -36.283             15.903              -1.237              
H              -35.863             13.287              -2.341              
H              -36.369             13.554              -0.812              
H              -37.299             14.014              -2.072              
N              -33.273             15.076              -1.8                
C              -31.94              14.916              -1.244              
C              -31.053             14.189              -2.25               
C              -31.506             12.751              -2.49               
O              -32.243             12.195              -1.647              
O              -31.171             12.194              -3.555              
H              -33.466             15.13               -2.822              
H              -32.03              14.38               -0.397              
H              -31.093             14.679              -3.111              
H              -30.128             14.172              -1.895              
H              -18.3103            25.0495             -8.71097            
H              -31.5192            15.8862             -0.964651           
