171
7.xyz
C              9.737               69.597              27.751              
C              10.986              68.89               28.277              
O              11.033              67.658              28.295              
C              8.85                69.952              28.951              
C              7.494               70.56               28.616              
C              7.629               71.819              27.785              
C              6.321               72.601              27.774              
N              6.243               73.495              26.585              
H              10.02               70.453              27.291              
H              8.695               69.113              29.481              
H              9.354               70.605              29.526              
H              6.955               69.887              28.104              
H              7.018               70.781              29.469              
H              8.336               72.394              28.178              
H              7.855               71.571              26.851              
H              5.558               71.955              27.752              
H              6.266               73.153              28.606              
H              5.285               73.696              26.384              
H              6.73                74.346              26.778              
H              6.662               73.039              25.8                
N              11.981              69.67               28.752              
C              13.144              69.052              29.383              
C              12.707              68.099              30.496              
O              11.827              68.433              31.299              
C              13.904              70.252              29.973              
C              13.482              71.419              29.134              
C              12.036              71.146              28.832              
H              13.708              68.57               28.705              
H              13.651              70.39               30.933              
H              14.893              70.106              29.913              
H              13.588              72.273              29.643              
H              14.023              71.46               28.295              
H              11.438              71.477              29.561              
H              11.758              71.552              27.961              
N              13.303              66.914              30.529              
C              12.987              65.946              31.577              
C              11.792              65.022              31.342              
O              11.619              64.057              32.087              
H              13.987              66.741              29.775              
H              13.823              65.364              31.753              
H              12.839              66.455              32.465              
N              10.975              65.303              30.319              
C              9.884               64.405              29.942              
C              10.482              63.056              29.583              
O              11.556              63.005              28.965              
C              9.128               64.951              28.724              
C              8.225               66.152              29.058              
O              8.062               66.488              30.258              
O              7.668               66.77               28.108              
H              11.181              66.193              29.831              
H              9.318               64.272              30.752              
H              9.795               65.243              28.049              
H              8.558               64.225              28.361              
N              9.806               61.967              29.969              
C              10.235              60.613              29.596              
C              10.659              60.537              28.123              
O              11.744              60.053              27.788              
C              9.102               59.601              29.814              
C              8.827               59.306              31.271              
O              9.618               59.695              32.162              
O              7.794               58.646              31.542              
H              8.966               62.16               30.546              
H              11.051              60.398              30.147              
H              8.276               59.976              29.399              
H              9.358               58.754              29.355              
N              9.792               61.019              27.244              
C              10.021              60.887              25.801              
C              11.309              61.577              25.365              
O              12.028              61.067              24.517              
C              8.8                 61.36               24.975              
C              8.927               60.944              23.506              
C              8.575               62.86               25.116              
C              8.474               59.52               23.256              
H              8.962               61.484              27.648              
H              10.147              59.903              25.627              
H              7.989               60.92               25.352              
H              8.377               61.561              22.955              
H              9.882               61.028              23.24               
H              7.734               63.117              24.642              
H              8.497               63.095              26.083              
H              9.346               63.351              24.715              
H              7.515               59.428              23.518              
H              8.579               59.306              22.286              
H              9.032               58.896              23.8                
N              11.611              62.721              25.972              
C              12.842              63.447              25.677              
C              14.088              62.654              26.108              
O              15.055              62.578              25.352              
C              12.818              64.863              26.296              
C              14.167              65.551              26.133              
C              11.748              65.702              25.622              
H              10.906              63.047              26.663              
H              12.898              63.583              24.679              
H              12.658              64.761              27.274              
H              14.89               64.862              26.094              
H              14.169              66.085              25.288              
H              14.328              66.158              26.911              
H              11.053              65.957              26.295              
H              12.164              66.528              25.242              
H              11.324              65.172              24.887              
N              14.049              62.051              27.295              
C              15.14               61.193              27.771              
C              15.34               59.998              26.833              
O              16.476              59.593              26.568              
C              14.863              60.706              29.195              
C              15.118              61.646              30.383              
C              16.499              61.396              30.985              
C              14.908              63.115              30.058              
H              13.19               62.237              27.85               
H              15.988              61.731              27.782              
H              13.89               60.434              29.241              
H              15.423              59.879              29.35               
H              14.419              61.484              31.079              
H              17.198              61.557              30.289              
H              16.643              62.017              31.755              
H              16.556              60.45               31.303              
H              13.963              63.262              29.762              
H              15.09               63.669              30.872              
H              15.532              63.389              29.324              
N              14.24               59.456              26.32               
C              14.293              58.316              25.407              
C              14.91               58.711              24.064              
O              15.737              57.972              23.508              
C              12.884              57.73               25.212              
C              12.338              57.088              26.484              
S              10.557              56.791              26.431              
C              10.494              55.113              25.833              
H              13.352              59.906              26.62               
H              14.879              57.609              25.82               
H              12.263              58.464              24.934              
H              12.919              57.034              24.494              
H              12.848              56.21               26.646              
H              12.582              57.691              27.281              
H              11.373              54.867              25.418              
H              10.303              54.488              26.593              
H              9.77                55.024              25.145              
N              14.507              59.876              23.546              
C              15.078              60.399              22.302              
C              16.58               60.634              22.435              
O              17.356              60.366              21.501              
C              14.39               61.697              21.895              
H              13.773              60.364              24.089              
H              14.921              59.726              21.568              
H              13.59               61.846              22.475              
H              15.027              62.46               22.004              
H              14.103              61.636              20.94               
N              16.985              61.16               23.587              
C              18.39               61.455              23.836              
C              19.21               60.179              23.768              
O              20.29               60.169              23.175              
C              18.585              62.078              25.216              
C              18.102              63.502              25.363              
C              18.052              63.939              26.828              
O              18.662              63.269              27.694              
O              17.391              64.948              27.137              
H              16.23               61.337              24.276              
H              18.725              62.108              23.151              
H              18.086              61.521              25.868              
H              19.556              62.067              25.415              
H              18.73               64.097              24.905              
H              17.19               63.565              25.012              
N              18.704              59.11               24.384              
C              19.429              57.844              24.404              
C              18.759              56.845              25.34               
H              17.784              59.255              24.83               
H              20.356              58.007              24.757              
H              19.424              56.154              25.621              
H              18.415              57.324              26.147              
H              17.999              56.403              24.866              
H              19.5066             57.4332             23.3936             
H              9.19254             68.9994             27.053              
