256
0.xyz
N              -7.556              65.436              13.471              
C              -7.2                63.988              13.504              
C              -5.797              63.778              12.919              
O              -5.038              64.737              12.83               
C              -8.274              63.159              12.8                
C              -9.616              63.214              13.527              
S              -10.8               61.981              12.962              
C              -9.999              60.449              13.445              
H              -6.721              65.978              13.507              
H              -7.187              63.702              14.461              
H              -8.404              63.508              11.871              
H              -7.977              62.204              12.757              
H              -9.436              63.114              14.537              
H              -9.999              64.165              13.422              
H              -9.941              60.403              14.443              
H              -10.531             59.673              13.106              
H              -9.078              60.417              13.056              
H              -8.05               65.632              12.628              
H              -8.131              65.649              14.257              
N              -5.424              62.55               12.56               
C              -4.069              62.32               12.051              
C              -3.936              62.639              10.57               
O              -4.872              62.443              9.803               
C              -3.636              60.876              12.272              
C              -3.553              60.515              13.733              
H              -6.132              61.819              12.666              
H              -3.456              62.954              12.549              
H              -4.3                60.277              11.831              
H              -2.737              60.75               11.859              
O              -3.006              61.272              14.53               
N              -4.068              59.342              14.089              
H              -4.478              58.749              13.393              
H              -4.046              59.052              15.043              
N              -2.755              63.106              10.156              
C              -2.494              63.228              8.728               
C              -2.214              61.835              8.163               
O              -1.942              60.917              8.934               
C              -1.223              64.082              8.692               
C              -0.501              63.708              9.954               
C              -1.585              63.475              10.972              
H              -3.26               63.655              8.254               
H              -0.671              63.862              7.888               
H              -1.449              65.055              8.686               
H              0.043               62.877              9.812               
H              0.108               64.452              10.241              
H              -1.345              62.732              11.598              
H              -1.774              64.304              11.503              
N              -2.263              61.673              6.828               
C              -1.715              60.427              6.304               
C              -0.233              60.331              6.704               
O              0.423               61.37               6.853               
C              -1.85               60.591              4.788               
C              -1.882              62.063              4.565               
C              -2.611              62.624              5.759               
H              -2.22               59.637              6.64                
H              -1.068              60.171              4.317               
H              -2.694              60.157              4.46                
H              -0.951              62.435              4.51                
H              -2.369              62.283              3.715               
H              -2.289              63.54               5.985               
H              -3.598              62.64               5.609               
N              0.291               59.107              6.895               
C              1.707               58.994              7.259               
C              2.603               59.462              6.106               
O              2.125               59.591              4.967               
C              1.874               57.495              7.503               
C              0.904               56.881              6.55                
C              -0.292              57.794              6.555               
H              1.905               59.515              8.095               
H              2.808               57.205              7.301               
H              1.647               57.262              8.447               
H              1.303               56.82               5.63                
H              0.65                55.957              6.852               
H              -0.731              57.828              5.659               
H              -0.961              57.519              7.245               
N              3.88                59.741              6.382               
C              4.757               60.18               5.294               
C              4.849               59.138              4.178               
O              4.664               57.938              4.425               
C              6.122               60.357              5.979               
C              5.783               60.606              7.421               
C              4.563               59.769              7.693               
H              4.451               61.069              4.925               
H              6.675               59.529              5.881               
H              6.614               61.134              5.589               
H              6.547               60.331              8.011               
H              5.592               61.58               7.571               
H              4.808               58.844              7.978               
H              3.975               60.189              8.384               
N              5.113               59.608              2.966               
C              5.232               58.74               1.798               
C              6.38                57.768              2.047               
O              7.405               58.15               2.616               
C              5.506               59.583              0.536               
C              4.762               60.923              0.459               
C              5.313               61.882              -0.604              
O              4.728               62.984              -0.787              
O              6.33                61.546              -1.257              
H              5.228               60.645              2.918               
H              4.387               58.233              1.665               
H              6.474               59.781              0.515               
H              5.23                59.047              -0.246              
H              3.823               60.739              0.229               
H              4.847               61.373              1.331               
N              6.207               56.501              1.68                
C              7.29                55.528              1.854               
C              7.753               54.942              0.523               
O              8.593               54.047              0.49                
C              6.91                54.381              2.811               
O              5.724               53.75               2.328               
C              6.686               54.901              4.231               
H              5.289               56.273              1.281               
H              8.074               56                  2.283               
H              7.662               53.694              2.812               
H              7.567               54.99               4.699               
H              6.238               55.796              4.195               
H              6.106               54.26               4.736               
H              5.334               54.273              1.562               
N              7.198               55.446              -0.568              
C              7.672               55.082              -1.888              
C              7.509               56.257              -2.841              
O              6.704               57.153              -2.61               
C              6.911               53.868              -2.422              
O              5.58                54.22               -2.724              
H              6.416               56.106              -0.397              
H              8.652               54.87               -1.825              
H              7.361               53.547              -3.247              
H              6.913               53.159              -1.726              
H              5.214               54.806              -2.001              
N              8.29                56.257              -3.906              
C              8.145               57.267              -4.932              
C              8.332               56.592              -6.274              
O              9.454               56.224              -6.642              
C              9.149               58.414              -4.753              
C              8.825               59.622              -5.628              
H              8.991               55.495              -3.939              
H              7.205               57.597              -4.897              
H              9.132               58.701              -3.801              
H              10.054              58.081              -4.998              
O              8.15                59.522              -6.662              
N              9.317               60.788              -5.205              
H              9.862               60.832              -4.371              
H              9.137               61.622              -5.729              
N              7.228               56.435              -7.013              
C              7.279               55.701              -8.276              
C              8.064               56.472              -9.338              
O              8.495               55.905              -10.348             
C              5.803               55.557              -8.672              
C              5.02                56.489              -7.811              
C              5.902               57.011              -6.715              
H              7.673               54.782              -8.142              
H              5.679               55.781              -9.654              
H              5.495               54.6                -8.542              
H              4.649               57.259              -8.371              
H              4.207               56.008              -7.42               
H              5.947               58.013              -6.724              
H              5.585               56.709              -5.811              
N              8.253               57.763              -9.098              
C              8.861               58.636              -10.085             
C              10.366              58.819              -9.861              
O              11.034              59.536              -10.602             
C              8.105               59.968              -10.109             
C              6.73                59.835              -10.744             
H              7.934               58.084              -8.163              
H              8.755               58.193              -10.989             
H              7.993               60.283              -9.174              
H              8.636               60.621              -10.637             
O              6.569               59.141              -11.749             
N              5.735               60.489              -10.162             
H              5.918               61.043              -9.344              
H              4.81                60.435              -10.531             
N              10.897              58.132              -8.863              
C              12.283              58.311              -8.45               
C              13.077              57.03               -8.733              
O              12.642              55.941              -8.357              
C              12.286              58.67               -6.964              
C              13.607              59.074              -6.332              
C              13.314              59.605              -4.934              
C              14.56               59.789              -4.078              
N              14.16               60.096              -2.666              
H              10.247              57.459              -8.402              
H              12.69               59.06               -8.977              
H              11.628              59.431              -6.827              
H              11.925              57.871              -6.451              
H              14.19               58.283              -6.259              
H              14.022              59.789              -6.867              
H              12.853              60.492              -5.018              
H              12.702              58.962              -4.467              
H              15.091              58.95               -4.09               
H              15.094              60.546              -4.436              
H              14.115              59.245              -2.148              
H              14.838              60.705              -2.26               
H              13.266              60.539              -2.669              
N              14.247              57.155              -9.403              
C              15.1                55.993              -9.671              
C              15.652              55.392              -8.38               
O              15.724              56.069              -7.357              
C              16.249              56.553              -10.518             
C              16.179              58.029              -10.417             
C              14.827              58.42               -9.884              
H              14.598              55.297              -10.202             
H              17.138              56.205              -10.176             
H              16.157              56.247              -11.48              
H              16.917              58.382              -9.805              
H              16.338              58.458              -11.33              
H              14.907              59.079              -9.131              
H              14.251              58.82               -10.604             
N              16.049              54.128              -8.437              
C              16.461              53.405              -7.235              
C              17.859              52.834              -7.368              
O              18.264              52.408              -8.455              
C              15.452              52.296              -6.942              
C              14.071              52.851              -6.631              
C              12.975              51.812              -6.71               
C              11.65               52.393              -6.205              
N              11.169              53.578              -6.995              
H              16.043              53.706              -9.383              
H              16.442              54.045              -6.451              
H              15.384              51.716              -7.741              
H              15.77               51.785              -6.156              
H              14.082              53.245              -5.702              
H              13.865              53.594              -7.282              
H              12.852              51.535              -7.653              
H              13.212              51.039              -6.139              
H              10.946              51.671              -6.241              
H              11.764              52.67               -5.241              
H              11.193              53.352              -7.966              
H              10.236              53.794              -6.719              
H              11.767              54.354              -6.811              
N              18.6                52.838              -6.263              
C              19.924              52.228              -6.236              
C              20.238              51.566              -4.913              
O              19.736              51.975              -3.85               
C              21.017              53.235              -6.584              
C              21.203              54.345              -5.558              
C              22.356              55.234              -5.983              
N              22.496              56.386              -5.092              
C              23.423              57.325              -5.233              
N              24.289              57.254              -6.231              
N              23.483              58.342              -4.377              
H              18.164              53.301              -5.445              
H              19.971              51.528              -6.971              
H              21.882              52.744              -6.665              
H              20.786              53.66               -7.457              
H              20.383              54.894              -5.514              
H              21.421              53.949              -4.68               
H              23.191              54.696              -5.956              
H              22.177              55.554              -6.907              
H              21.85               56.469              -4.327              
H              24.253              56.517              -6.901              
H              25.004              57.962              -6.32               
H              22.808              58.4                -3.637              
H              24.188              59.037              -4.47               
N              21.09               50.548              -5                  
H              21.35               50.294              -5.987              
H              21.4591             50.0574             -4.1958             
