200
4.xyz
C              9.966               50.5                5.033               
C              10.603              51.211              3.837               
O              10.689              50.634              2.758               
C              8.483               50.866              5.129               
C              7.651               49.907              5.974               
C              6.189               50.327              5.983               
C              5.315               49.355              6.763               
N              5.222               49.714              8.207               
H              10.003              49.505              4.87                
H              8.412               51.778              5.531               
H              8.104               50.877              4.204               
H              7.722               48.99               5.59                
H              7.996               49.913              6.908               
H              6.115               51.228              6.405               
H              5.858               50.365              5.043               
H              4.393               49.356              6.364               
H              5.701               48.431              6.679               
H              6.142               49.794              8.587               
H              4.743               50.586              8.3                 
H              4.719               49.001              8.693               
N              11.064              52.437              4.046               
C              11.766              53.179              3.001               
C              13.032              52.448              2.567               
O              13.278              52.294              1.373               
C              12.062              54.616              3.465               
C              10.817              55.487              3.47                
C              11.058              56.878              3.999               
N              9.9                 57.718              3.714               
C              9.889               59.042              3.704               
N              10.992              59.735              3.957               
N              8.751               59.669              3.4                 
H              10.887              52.817              4.995               
H              11.158              53.27               2.204               
H              12.418              54.575              4.385               
H              12.717              55.012              2.841               
H              10.464              55.563              2.531               
H              10.112              55.051              4.041               
H              11.191              56.824              4.977               
H              11.854              57.252              3.547               
H              9.023               57.244              3.505               
H              11.855              59.268              4.14                
H              10.96               60.739              3.964               
H              7.933               59.148              3.166               
H              8.72                60.671              3.406               
N              13.817              51.973              3.531               
C              15.018              51.208              3.214               
C              14.658              49.917              2.46                
O              15.246              49.625              1.426               
C              15.829              50.9                4.472               
C              16.512              52.147              5.057               
C              16.852              51.953              6.524               
C              17.759              52.517              4.258               
H              13.509              52.188              4.494               
H              15.608              51.762              2.619               
H              15.217              50.553              5.156               
H              16.535              50.262              4.236               
H              15.892              52.928              4.957               
H              17.473              51.175              6.625               
H              17.294              52.778              6.878               
H              16.014              51.778              7.043               
H              17.502              52.707              3.311               
H              18.182              53.329              4.659               
H              18.407              51.756              4.282               
N              13.668              49.18               2.95                
C              13.284              47.91               2.343               
C              12.769              48.093              0.929               
O              12.963              47.224              0.087               
C              12.214              47.215              3.187               
C              12.747              46.723              4.528               
C              11.666              46.244              5.467               
O              10.483              46.633              5.311               
O              12.009              45.475              6.387               
H              13.199              49.579              3.787               
H              14.081              47.286              2.335               
H              11.507              47.866              3.37                
H              11.898              46.435              2.689               
H              13.354              45.965              4.355               
H              13.215              47.473              4.965               
N              12.108              49.222              0.685               
C              11.548              49.544              -0.623              
C              12.51               50.285              -1.558              
O              12.123              50.639              -2.672              
C              10.266              50.372              -0.449              
C              9.146               49.607              0.241               
H              12.025              49.858              1.512               
H              11.321              48.661              -1.078              
H              10.485              51.177              0.099               
H              9.949               50.652              -1.353              
O              9.219               48.398              0.439               
N              8.083               50.325              0.606               
H              8.055               51.306              0.416               
H              7.316               49.882              1.068               
N              13.744              50.527              -1.113              
C              14.728              51.306              -1.873              
C              14.207              52.702              -2.185              
O              14.434              53.236              -3.274              
C              15.128              50.573              -3.153              
C              15.489              49.137              -2.893              
H              13.951              50.114              -0.175              
H              15.536              51.415              -1.282              
H              14.359              50.604              -3.784              
H              15.915              51.039              -3.546              
O              16.541              48.835              -2.314              
N              14.611              48.235              -3.283              
H              13.759              48.513              -3.732              
H              14.79               47.258              -3.134              
N              13.506              53.286              -1.224              
C              12.985              54.639              -1.331              
C              14.097              55.695              -1.406              
O              13.951              56.719              -2.09               
C              12.084              54.921              -0.135              
C              11.4                56.263              -0.126              
C              10.163              56.437              -0.743              
C              11.963              57.343              0.52                
C              9.514               57.663              -0.722              
C              11.33               58.565              0.549               
C              10.109              58.721              -0.06               
O              9.498               59.95               -0.034              
H              13.359              52.685              -0.375              
H              12.439              54.707              -2.182              
H              11.374              54.208              -0.103              
H              12.642              54.85               0.701               
H              9.733               55.662              -1.212              
H              12.849              57.237              0.978               
H              8.634               57.778              -1.175              
H              11.762              59.345              1.016               
H              8.636               59.9                -0.537              
N              15.184              55.454              -0.687              
C              16.292              56.403              -0.633              
C              17.346              56.101              -1.681              
O              17.763              54.953              -1.842              
C              16.991              56.32               0.703               
C              16.152              56.508              1.928               
C              15.483              57.701              2.177               
C              16.111              55.519              2.901               
C              14.778              57.894              3.356               
C              15.406              55.696              4.078               
C              14.74               56.88               4.306               
O              14.068              57.016              5.502               
H              15.181              54.55               -0.175              
H              15.923              57.327              -0.812              
H              17.441              55.413              0.768               
H              17.727              57.02               0.719               
H              15.51               58.435              1.495               
H              16.601              54.659              2.747               
H              14.298              58.756              3.523               
H              15.381              54.964              4.763               
H              13.688              57.937              5.56                
N              17.801              57.145              -2.367              
C              18.899              57.031              -3.323              
C              20.208              57.343              -2.625              
O              21.196              56.637              -2.803              
C              18.653              57.983              -4.493              
C              19.658              57.951              -5.62               
C              20.69               58.82               -5.809              
C              19.681              57.054              -6.751              
N              21.366              58.515              -6.964              
C              20.774              57.436              -7.561              
C              18.907              55.955              -7.139              
C              21.101              56.772              -8.752              
C              19.237              55.286              -8.311              
C              20.321              55.704              -9.111              
H              17.311              58.043              -2.166              
H              18.936              56.08               -3.632              
H              17.757              57.775              -4.899              
H              18.637              58.927              -4.147              
H              20.925              59.575              -5.195              
H              22.166              59.004              -7.315              
H              18.133              55.652              -6.59               
H              21.877              57.081              -9.305              
H              18.698              54.499              -8.59               
H              20.513              55.203              -9.953              
N              20.191              58.41               -1.829              
C              21.342              58.864              -1.064              
C              21.184              58.496              0.409               
O              20.114              58.695              0.996               
C              21.466              60.384              -1.165              
C              21.86               60.86               -2.552              
H              19.261              58.902              -1.801              
H              22.145              58.365              -1.405              
H              20.585              60.789              -0.93               
H              22.162              60.687              -0.516              
O              22.666              60.234              -3.239              
N              21.3                61.985              -2.964              
H              20.66               62.478              -2.372              
H              21.514              62.351              -3.873              
N              22.272              58.032              1.009               
C              22.307              57.719              2.435               
C              21.85               58.906              3.309               
O              21.131              58.721              4.3                 
C              23.719              57.272              2.825               
H              23.096              57.91               0.38                
H              21.687              56.941              2.615               
H              23.779              57.201              3.819               
H              23.909              56.383              2.412               
H              24.38               57.943              2.495               
N              22.249              60.119              2.938               
H              22.814              60.154              2.075               
H              22.0013             60.9392             3.48339             
H              10.4799             50.7213             5.93413             
