203
1.xyz
C              -7.649              -1.383              -28.304             
C              -7.04               -2.107              -27.102             
O              -6.723              -1.487              -26.082             
C              -9.159              -1.567              -28.285             
C              -9.852              -0.799              -29.386             
H              -7.378              -0.418              -28.23              
H              -9.362              -2.537              -28.397             
H              -9.506              -1.247              -27.406             
O              -9.376              0.249               -29.824             
N              -10.981             -1.317              -29.842             
H              -11.337             -2.17               -29.456             
H              -11.486             -0.858              -30.576             
N              -6.869              -3.421              -27.213             
C              -6.285              -4.177              -26.107             
C              -4.82               -3.825              -25.883             
O              -4.418              -3.681              -24.746             
C              -6.475              -5.682              -26.261             
C              -7.93               -6.081              -26.085             
C              -8.157              -7.581              -26.062             
H              -7.169              -3.837              -28.101             
H              -6.792              -3.937              -25.266             
H              -6.186              -5.953              -27.17              
H              -5.938              -6.148              -25.568             
H              -8.267              -5.696              -25.22              
H              -8.464              -5.69               -26.841             
O              -7.218              -8.376              -26.216             
N              -9.394              -7.979              -25.886             
H              -9.633              -8.976              -25.872             
H              -10.132             -7.284              -25.76              
N              -4.035              -3.66               -26.946             
C              -2.624              -3.293              -26.764             
C              -2.472              -1.92               -26.158             
O              -1.625              -1.712              -25.301             
C              -1.869              -3.362              -28.093             
C              -1.593              -4.758              -28.614             
C              -1.022              -4.647              -30.021             
C              -0.646              -5.534              -27.715             
H              -4.478              -3.804              -27.857             
H              -2.202              -3.972              -26.145             
H              -2.415              -2.886              -28.775             
H              -0.995              -2.906              -27.968             
H              -2.441              -5.274              -28.644             
H              -0.173              -4.119              -29.996             
H              -0.835              -5.562              -30.379             
H              -1.683              -4.187              -30.614             
H              -1.045              -5.62               -26.801             
H              -0.493              -6.447              -28.097             
H              0.228               -5.051              -27.651             
N              -3.33               -0.985              -26.565             
C              -3.257              0.37                -26.052             
C              -3.6                0.346               -24.56              
O              -2.963              1.01                -23.756             
C              -4.209              1.297               -26.816             
C              -3.937              1.41                -28.306             
C              -2.907              2.443               -28.628             
H              -4.029              -1.306              -27.257             
H              -2.316              0.691               -26.14              
H              -5.149              0.96                -26.694             
H              -4.147              2.219               -26.416             
H              -3.622              0.518               -28.638             
H              -4.796              1.646               -28.767             
O              -3.232              3.519               -29.12              
N              -1.658              2.141               -28.329             
H              -0.889              2.79                -28.531             
H              -1.455              1.243               -27.887             
N              -4.601              -0.441              -24.192             
C              -5.001              -0.591              -22.803             
C              -3.9                -1.252              -21.971             
O              -3.648              -0.846              -20.842             
C              -6.293              -1.402              -22.747             
C              -6.817              -1.718              -21.365             
C              -6.446              -2.886              -20.721             
C              -7.711              -0.881              -20.723             
C              -6.93               -3.216              -19.472             
C              -8.205              -1.2                -19.465             
C              -7.796              -2.364              -18.843             
O              -8.292              -2.707              -17.607             
H              -5.072              -0.939              -24.98              
H              -5.171              0.326               -22.418             
H              -7.006              -0.891              -23.241             
H              -6.137              -2.273              -23.226             
H              -5.803              -3.516              -21.178             
H              -8.006              -0.037              -21.165             
H              -6.646              -4.072              -19.032             
H              -8.855              -0.588              -19.012             
H              -8.081              -3.666              -17.423             
N              -3.232              -2.249              -22.526             
C              -2.134              -2.897              -21.816             
C              -1.014              -1.928              -21.478             
O              -0.413              -2.042              -20.407             
C              -1.582              -4.089              -22.635             
C              -2.452              -5.35               -22.501             
C              -2.219              -6.305              -23.658             
C              -2.238              -6.04               -21.16              
H              -3.543              -2.521              -23.472             
H              -2.495              -3.282              -20.952             
H              -1.579              -3.828              -23.578             
H              -0.692              -4.302              -22.291             
H              -3.415              -5.074              -22.482             
H              -1.258              -6.583              -23.676             
H              -2.796              -7.115              -23.547             
H              -2.449              -5.851              -24.52              
H              -2.477              -5.412              -20.419             
H              -2.818              -6.854              -21.107             
H              -1.278              -6.308              -21.072             
N              -0.718              -0.988              -22.368             
C              0.306               0.025               -22.087             
C              -0.212              1.133               -21.177             
O              0.399               1.418               -20.148             
C              0.833               0.639               -23.389             
C              1.918               1.72                -23.279             
C              3.156               1.211               -22.552             
C              2.265               2.213               -24.668             
H              -1.254              -1.028              -23.25              
H              1.083               -0.429              -21.627             
H              1.212               -0.104              -23.945             
H              0.056               1.048               -23.87              
H              1.54                2.507               -22.782             
H              3.539               0.433               -23.05              
H              3.837               1.942               -22.501             
H              2.906               0.924               -21.627             
H              1.449               2.599               -25.104             
H              2.973               2.92                -24.609             
H              2.605               1.451               -25.222             
N              -1.32               1.766               -21.574             
C              -1.811              2.997               -20.925             
C              -2.496              2.777               -19.587             
O              -2.549              3.698               -18.761             
C              -2.805              3.751               -21.83              
C              -2.184              4.446               -23.02              
C              -3.226              5.289               -23.729             
N              -2.642              5.957               -24.891             
C              -3.232              6.113               -26.078             
N              -4.455              5.639               -26.324             
N              -2.565              6.729               -27.047             
H              -1.809              1.32                -22.379             
H              -1.013              3.619               -20.786             
H              -3.474              3.088               -22.165             
H              -3.267              4.437               -21.269             
H              -1.454              5.045               -22.716             
H              -1.843              3.771               -23.661             
H              -3.959              4.693               -24.027             
H              -3.56               5.971               -23.092             
H              -1.705              6.336               -24.788             
H              -4.956              5.17                -25.597             
H              -4.863              5.754               -27.225             
H              -1.647              7.086               -26.884             
H              -2.986              6.838               -27.951             
N              -3.073              1.598               -19.398             
C              -3.801              1.313               -18.172             
C              -3.087              0.239               -17.36              
O              -2.739              0.479               -16.213             
C              -5.266              0.933               -18.446             
C              -5.976              0.642               -17.131             
C              -5.976              2.057               -19.193             
H              -2.963              0.923               -20.173             
H              -3.828              2.153               -17.618             
H              -5.268              0.09                -18.97              
H              -6.938              0.903               -17.206             
H              -5.912              -0.334              -16.926             
H              -5.545              1.166               -16.396             
H              -6.642              1.662               -19.824             
H              -6.443              2.646               -18.534             
H              -5.302              2.589               -19.703             
N              -2.844              -0.932              -17.936             
C              -2.278              -2.054              -17.154             
C              -0.835              -1.826              -16.712             
O              -0.573              -1.749              -15.5               
C              -2.386              -3.403              -17.9               
C              -1.884              -4.532              -17.014             
C              -3.833              -3.659              -18.296             
H              -3.072              -0.998              -18.936             
H              -2.849              -2.163              -16.322             
H              -1.783              -3.359              -18.688             
H              -1.994              -5.405              -17.49              
H              -0.917              -4.388              -16.804             
H              -2.41               -4.549              -16.163             
H              -4.31               -4.101              -17.536             
H              -4.275              -2.788              -18.51              
H              -3.855              -4.254              -19.099             
N              0.075               -1.701              -17.673             
C              1.487               -1.461              -17.391             
C              1.639               -0.192              -16.557             
O              2.35                -0.193              -15.555             
C              2.278               -1.343              -18.702             
C              3.8                 -1.18               -18.692             
C              4.249               0.183               -18.198             
C              4.478               -2.293              -17.925             
H              -0.305              -1.789              -18.642             
H              1.845               -2.232              -16.862             
H              2.074               -2.174              -19.253             
H              1.899               -0.55               -19.212             
H              4.147               -1.326              -19.63              
H              3.924               0.325               -17.262             
H              5.249               0.234               -18.213             
H              3.873               0.896               -18.791             
H              4.261               -3.176              -18.346             
H              5.471               -2.158              -17.937             
H              4.158               -2.294              -16.975             
N              0.966               0.88                -16.968             
H              0.361               0.731               -17.794             
H              -7.24648            -1.75641            -29.2102            
H              1.05135             1.77996             -16.4906            
