211
1.xyz
C              8.686               -0.774              25.281              
C              9.87                -0.216              26.069              
O              9.663               0.703               26.908              
C              8.299               -2.136              25.859              
C              7.759               -2.041              27.276              
O              8.389               -2.584              28.236              
O              6.694               -1.462              27.453              
H              7.939               -0.107              25.365              
H              7.597               -2.529              25.277              
H              9.109               -2.71               25.864              
N              11.076              -0.656              25.754              
C              12.279              -0.093              26.442              
C              12.553              1.369               26.109              
O              12.932              2.128               27.001              
C              13.512              -0.924              26.118              
C              13.541              -2.291              26.954              
O              12.978              -2.355              28.064              
O              14.138              -3.24               26.489              
H              11.13               -1.379              25.036              
H              12.087              -0.148              27.436              
H              13.501              -1.178              25.17               
H              14.321              -0.428              26.366              
N              12.284              1.755               24.859              
C              12.375              3.162               24.508              
C              11.347              3.968               25.337              
O              11.686              4.992               25.939              
C              12.108              3.356               22.997              
C              11.912              4.835               22.624              
C              13.003              5.698               22.544              
C              10.605              5.346               22.439              
C              12.823              7.042               22.201              
C              10.394              6.698               22.108              
C              11.486              7.543               22.06               
O              11.26               8.891               21.76               
H              12.023              1.007               24.211              
H              13.285              3.498               24.748              
H              12.887              3.016               22.497              
H              11.282              2.872               22.762              
H              13.921              5.361               22.732              
H              9.827               4.741               22.544              
H              13.587              7.646               22.054              
H              9.481               7.026               21.916              
H              12.108              9.392               21.898              
N              10.102              3.484               25.401              
C              9.09                4.227               26.141              
C              9.477               4.252               27.649              
O              9.224               5.265               28.312              
C              7.679               3.643               25.966              
C              7.12                3.91                24.548              
S              5.413               3.37                24.559              
C              5.631               1.648               24.657              
H              9.94                2.603               24.914              
H              9.085               5.171               25.822              
H              7.71                2.658               26.105              
H              7.063               4.065               26.625              
H              7.195               4.886               24.359              
H              7.664               3.393               23.892              
H              6.268               1.323               23.944              
H              6.008               1.381               25.556              
H              4.753               1.164               24.533              
N              10.028              3.158               28.178              
C              10.518              3.279               29.588              
C              11.525              4.36                29.83               
O              11.44               5.082               30.865              
C              11.108              1.93                30.073              
C              10.031              0.936               30.464              
C              10.707              -0.389              30.737              
C              9.796               -1.324              31.478              
N              10.502              -2.604              31.771              
H              10.083              2.338               27.622              
H              9.695               3.437               30.179              
H              11.641              1.55                29.331              
H              11.676              2.116               30.862              
H              9.582               1.248               31.285              
H              9.397               0.831               29.717              
H              10.961              -0.805              29.867              
H              11.522              -0.227              31.288              
H              9.515               -0.905              32.339              
H              8.991               -1.519              30.921              
H              9.942               -3.37               31.457              
H              11.38               -2.613              31.295              
H              10.653              -2.68               32.756              
N              12.443              4.533               28.87               
C              13.505              5.545               28.992              
C              12.9                6.915               28.939              
O              13.361              7.829               29.649              
C              14.566              5.299               27.923              
C              15.957              5.762               28.26               
C              16.604              4.965               29.397              
O              16.238              3.81                29.693              
O              17.54               5.492               29.962              
H              12.343              3.907               28.053              
H              13.988              5.409               29.86               
H              14.602              4.319               27.761              
H              14.277              5.777               27.101              
H              16.532              5.649               27.468              
H              15.92               6.702               28.555              
N              11.87               7.092               28.098              
C              11.177              8.349               27.938              
C              10.461              8.683               29.257              
O              10.326              9.866               29.612              
C              10.215              8.292               26.716              
C              9.259               9.512               26.714              
C              11.091              8.3                 25.446              
H              11.616              6.221               27.564              
H              11.847              9.069               27.77               
H              9.645               7.487               26.817              
H              8.328               9.189               26.576              
H              9.334               9.979               27.59               
H              9.523               10.124              25.975              
H              11.662              7.484               25.447              
H              10.496              8.303               24.647              
H              11.659              9.118               25.455              
N              10.067              7.637               30.039              
C              9.309               7.837               31.27               
C              7.818               7.538               31.139              
O              7.004               7.936               32.005              
H              10.355              6.711               29.676              
H              9.701               7.248               32.004              
H              9.427               8.8                 31.583              
N              7.403               6.797               30.099              
C              5.993               6.445               29.926              
C              5.552               5.403               30.958              
O              6.252               4.421               31.17               
C              5.735               5.861               28.508              
C              4.245               5.679               28.264              
C              6.377               6.811               27.435              
H              8.153               6.506               29.449              
H              5.443               7.275               30.072              
H              6.151               4.958               28.48               
H              3.731               6.064               29.031              
H              3.984               6.148               27.42               
H              4.036               4.705               28.18               
H              6.127               7.744               27.664              
H              7.361               6.689               27.468              
H              6.018               6.556               26.546              
N              4.405               5.646               31.573              
C              3.952               4.764               32.659              
C              3.387               3.473               32.093              
O              3.126               3.36                30.878              
H              3.881               6.464               31.245              
H              4.728               4.557               33.261              
H              3.245               5.236               33.194              
N              3.177               2.486               32.976              
C              2.928               1.149               32.539              
C              1.707               1.011               31.616              
O              1.845               0.361               30.546              
C              2.737               0.277               33.847              
C              2.394               -1.134              33.559              
C              3.4                 -2.098              33.467              
C              1.042               -1.521              33.407              
C              3.045               -3.438              33.115              
C              0.696               -2.864              33.084              
C              1.71                -3.805              32.977              
H              3.214               2.788               33.968              
H              3.73                0.848               31.986              
H              3.593               0.317               34.329              
H              2.005               0.698               34.351              
H              4.335               -1.881              33.637              
H              0.321               -0.85               33.527              
H              3.784               -4.103              32.97               
H              -0.263              -3.101              32.94               
H              1.482               -4.769              32.797              
N              0.558               1.552               32.016              
C              -0.683              1.24                31.309              
C              -0.571              1.881               29.92               
O              -0.917              1.267               28.897              
C              -1.9                1.754               32.027              
H              0.619               2.178               32.827              
H              -0.757              0.26                31.199              
H              -2.588              2.057               31.363              
H              -2.295              1.029               32.596              
H              -1.651              2.529               32.613              
N              -0.012              3.095               29.887              
C              0.194               3.762               28.581              
C              1.12                2.952               27.709              
O              0.838               2.788               26.489              
C              0.633               5.239               28.78               
O              -0.448              5.904               29.444              
C              0.783               5.919               27.459              
H              0.245               3.499               30.783              
H              -0.702              3.836               28.13               
H              1.44                5.255               29.383              
H              1.52                5.491               26.922              
H              -0.072              5.857               26.93               
H              1.008               6.893               27.585              
H              -0.554              6.839               29.09               
N              2.255               2.476               28.251              
C              3.173               1.633               27.446              
C              4.429               1.149               28.243              
C              5.393               2.272               28.592              
C              6.773               1.661               28.848              
N              6.684               0.451               29.702              
C              6.529               0.481               31.034              
N              6.426               1.651               31.725              
N              6.44                -0.694              31.693              
H              2.424               2.734               29.225              
H              3.534               2.207               26.695              
H              4.106               0.735               29.082              
H              4.902               0.489               27.678              
H              5.469               2.894               27.835              
H              5.1                 2.719               29.416              
H              7.168               1.41                27.975              
H              7.331               2.339               29.308              
H              6.744               -0.44               29.252              
H              6.449               2.503               31.208              
H              6.331               1.633               32.705              
H              6.47                -1.55               31.189              
H              6.343               -0.69               32.686              
H              8.92766             -0.851156           24.2518             
H              2.67391             0.779154            27.0424             
