338
5.xyz
C              11.466              60.558              58.853              
C              12.542              60.35               57.761              
O              13.722              60.826              57.86               
C              11.447              59.385              59.813              
C              10.682              59.772              61.062              
C              10.892              58.829              62.184              
C              10.133              59.191              63.428              
N              10.705              60.414              64.067              
H              11.706              61.377              59.382              
H              10.986              58.633              59.384              
H              12.37               59.168              60.065              
H              10.973              60.7                61.339              
H              9.698               59.815              60.834              
H              10.608              57.902              61.9                
H              11.875              58.794              62.414              
H              9.174               59.366              63.197              
H              10.18               58.434              64.082              
H              10.706              61.161              63.405              
H              10.147              60.664              64.856              
H              11.64               60.224              64.362              
N              12.121              59.713              56.69               
C              13.033              59.557              55.577              
C              13.326              60.914              54.93               
O              14.467              61.198              54.512              
C              12.514              58.634              54.526              
C              12.476              57.18               54.92               
C              12.992              56.72               56.074              
C              11.81               56.301              54.086              
C              12.893              55.363              56.378              
C              11.701              54.967              54.329              
C              12.285              54.476              55.49               
H              11.163              59.364              56.713              
H              13.906              59.225              55.948              
H              11.581              58.901              54.297              
H              13.097              58.705              53.72               
H              13.444              57.321              56.723              
H              11.376              56.685              53.239              
H              13.269              55.025              57.253              
H              11.221              54.355              53.699              
H              12.272              53.502              55.692              
N              12.314              61.75               54.827              
C              12.566              63.087              54.296              
C              13.642              63.827              55.091              
O              14.599              64.438              54.56               
C              11.248              63.86               54.27               
S              11.433              65.543              53.64               
H              11.403              61.41               55.128              
H              12.892              62.993              53.344              
H              10.614              63.374              53.682              
H              10.899              63.91               55.198              
H              11.607              66.167              54.402              
N              13.468              63.794              56.389              
C              14.397              64.452              57.273              
C              15.826              63.975              57.087              
O              16.75               64.783              57.116              
C              13.972              64.25               58.7                
O              12.763              64.945              58.998              
H              12.633              63.271              56.714              
H              14.376              65.448              57.073              
H              13.823              63.275              58.871              
H              14.687              64.589              59.314              
H              11.992              64.447              58.607              
N              16.032              62.691              56.914              
C              17.368              62.162              56.568              
C              17.891              62.69               55.215              
O              19.054              63.06               55.127              
C              17.343              60.654              56.519              
C              18.673              59.996              56.071              
C              19.746              60.266              57.081              
C              21.017              59.511              56.693              
N              20.834              58.066              57.018              
H              15.204              62.08               57.035              
H              18.02               62.437              57.291              
H              17.13               60.299              57.43               
H              16.635              60.358              55.876              
H              18.52               59.017              55.99               
H              18.927              60.382              55.192              
H              19.954              61.232              57.096              
H              19.457              59.945              57.97               
H              21.168              59.614              55.721              
H              21.778              59.872              57.213              
H              20.756              57.958              58.008              
H              20.003              57.732              56.576              
H              21.622              57.551              56.685              
N              17.054              62.682              54.155              
C              17.469              63.177              52.897              
C              17.874              64.667              53.003              
O              18.847              65.093              52.392              
C              16.391              63.009              51.818              
C              15.968              61.585              51.413              
C              14.99               61.702              50.262              
C              17.113              60.742              50.954              
H              16.117              62.288              54.368              
H              18.28               62.672              52.575              
H              15.562              63.48               52.139              
H              16.718              63.466              50.985              
H              15.53               61.152              52.185              
H              15.43               62.164              49.49               
H              14.695              60.789              49.975              
H              14.19               62.231              50.551              
H              17.795              60.652              51.687              
H              16.79               59.824              50.701              
H              17.554              61.16               50.153              
N              17.176              65.43               53.823              
C              17.504              66.857              53.905              
C              18.868              67.021              54.609              
O              19.622              67.959              54.304              
C              16.4                67.631              54.628              
H              16.44               64.977              54.359              
H              17.581              67.227              52.983              
H              15.865              68.145              53.96               
H              15.807              66.988              55.109              
H              16.813              68.261              55.283              
N              19.163              66.151              55.573              
C              20.477              66.163              56.208              
C              21.561              65.828              55.179              
O              22.575              66.532              55.125              
C              20.525              65.197              57.402              
C              21.936              64.952              57.957              
C              22.203              63.479              58.408              
O              22.005              63.2                59.623              
O              22.609              62.592              57.552              
H              18.409              65.494              55.821              
H              20.658              67.068              56.598              
H              19.989              65.588              58.127              
H              20.173              64.33               57.102              
H              22.589              65.152              57.25               
H              22.064              65.515              58.752              
N              21.35               64.798              54.35               
C              22.342              64.43               53.334              
C              22.512              65.566              52.312              
O              23.662              65.873              51.927              
C              21.952              63.129              52.591              
C              22.794              62.843              51.346              
C              22.013              61.972              53.546              
H              20.456              64.303              54.486              
H              23.224              64.296              53.792              
H              20.999              63.233              52.279              
H              23.516              63.529              51.271              
H              23.201              61.935              51.424              
H              22.21               62.88               50.537              
H              22.627              61.265              53.185              
H              22.357              62.283              54.436              
H              21.097              61.581              53.666              
N              21.399              66.135              51.852              
C              21.449              67.113              50.788              
C              22.221              68.351              51.213              
O              23.063              68.856              50.453              
C              20.04               67.499              50.302              
C              20.037              68.358              49.118              
C              20.567              67.909              47.896              
C              19.611              69.676              49.229              
C              20.512              68.739              46.791              
C              19.566              70.5                48.122              
C              20.056              70.051              46.92               
H              20.527              65.821              52.313              
H              21.963              66.699              50.025              
H              19.566              66.653              50.093              
H              19.597              67.975              51.052              
H              20.97               67.014              47.833              
H              19.333              70.029              50.124              
H              20.804              68.393              45.89               
H              19.173              71.431              48.205              
H              20.091              70.66               46.122              
N              21.951              68.838              52.403              
C              22.677              70.018              52.889              
C              24.163              69.857              52.845              
O              24.852              70.824              52.495              
C              22.218              70.348              54.283              
C              23.166              70.836              55.314              
C              22.451              71.001              56.666              
O              22.558              70.173              57.593              
O              21.748              71.96               56.832              
H              21.227              68.353              52.943              
H              22.396              70.825              52.334              
H              21.478              71.048              54.195              
H              21.768              69.509              54.655              
H              23.872              70.177              55.451              
H              23.499              71.719              55.067              
N              24.664              68.705              53.209              
C              26.12               68.482              53.252              
C              26.692              68.455              51.84               
O              27.768              68.946              51.595              
C              26.527              67.131              53.908              
C              25.766              66.698              55.146              
C              25.636              67.818              56.093              
H              23.977              67.971              53.461              
H              26.532              69.255              53.739              
H              26.43               66.406              53.205              
H              27.513              67.188              54.144              
H              24.862              66.388              54.864              
H              26.266              65.949              55.573              
O              26.627              68.533              56.308              
N              24.411              67.997              56.726              
H              24.275              68.725              57.381              
H              23.674              67.342              56.476              
N              25.992              67.824              50.913              
C              26.446              67.788              49.497              
C              26.328              69.124              48.734              
O              27.173              69.483              47.904              
C              25.599              66.777              48.798              
C              25.855              65.377              49.287              
C              27.022              64.691              48.523              
O              27.348              65.011              47.303              
O              27.508              63.724              49.109              
H              25.126              67.367              51.234              
H              27.417              67.475              49.472              
H              24.655              66.984              48.976              
H              25.812              66.799              47.839              
H              26.12               65.406              50.229              
H              25.061              64.826              49.13               
N              25.268              69.84               48.958              
C              24.954              70.979              48.12               
C              25.773              72.173              48.501              
O              25.981              73.091              47.718              
C              23.454              71.291              48.19               
C              22.968              72.158              47.035              
C              23.107              72.025              49.492              
C              23.273              71.707              45.637              
H              24.68               69.542              49.76               
H              25.224              70.721              47.183              
H              22.955              70.418              48.153              
H              21.959              72.269              47.13               
H              23.356              73.093              47.165              
H              22.12               72.155              49.541              
H              23.414              71.479              50.267              
H              23.564              72.91               49.501              
H              22.862              70.809              45.475              
H              22.899              72.364              44.981              
H              24.264              71.644              45.511              
N              26.28               72.17               49.728              
C              26.913              73.403              50.236              
C              28.138              73.802              49.43               
O              28.18               74.941              48.903              
C              27.149              73.263              51.743              
C              27.748              74.51               52.38               
O              27.514              75.65               51.996              
O              28.493              74.329              53.303              
H              26.202              71.307              50.255              
H              26.231              74.142              50.134              
H              26.272              73.076              52.176              
H              27.773              72.502              51.888              
N              29.145              72.898              49.314              
C              30.321              73.254              48.564              
C              30.037              73.479              47.101              
O              30.676              74.328              46.46               
C              31.274              72.035              48.762              
C              30.382              70.948              49.141              
C              29.303              71.605              49.971              
H              30.777              74.072              48.97               
H              31.759              71.851              47.904              
H              31.943              72.249              49.477              
H              29.976              70.502              48.335              
H              30.859              70.248              49.685              
H              28.456              71.08               49.939              
H              29.596              71.717              50.919              
N              29.048              72.766              46.569              
C              28.755              72.928              45.154              
C              28.192              74.336              44.857              
O              28.623              74.999              43.905              
C              27.772              71.867              44.743              
C              27.232              72.195              43.38               
C              28.424              70.462              44.807              
H              28.552              72.141              47.201              
H              29.612              72.833              44.636              
H              27.002              71.89               45.374              
H              26.24               72.049              43.359              
H              27.424              73.154              43.156              
H              27.662              71.608              42.689              
H              28.935              70.389              45.658              
H              27.702              69.777              44.776              
H              29.033              70.361              44.026              
N              27.297              74.814              45.71               
C              26.772              76.149              45.545              
C              27.814              77.223              45.79               
O              27.799              78.236              45.101              
C              25.552              76.399              46.376              
C              24.413              75.515              45.981              
S              23.843              75.628              44.294              
C              23.08               77.269              44.318              
H              27.024              74.17               46.469              
H              26.444              76.247              44.588              
H              25.767              76.234              47.345              
H              25.266              77.359              46.272              
H              24.676              74.523              46.214              
H              23.619              75.689              46.649              
H              22.453              77.326              45.092              
H              23.794              77.96               44.409              
H              22.58               77.409              43.466              
N              28.728              77.004              46.718              
C              29.827              77.946              46.882              
C              30.667              78.004              45.634              
O              30.942              79.065              45.191              
C              30.707              77.592              48.066              
C              29.99               77.672              49.382              
C              30.873              77.317              50.547              
H              28.603              76.158              47.283              
H              29.429              78.859              47.037              
H              31.047              76.657              47.946              
H              31.485              78.224              48.09               
H              29.65               78.607              49.513              
H              29.21               77.041              49.368              
O              31.519              78.161              51.084              
N              30.895              76.072              50.934              
H              31.48               75.753              51.708              
H              30.304              75.386              50.446              
N              31.052              76.894              45.024              
C              31.837              77.017              43.794              
C              31.088              77.603              42.599              
O              31.72               78.18               41.739              
C              32.493              75.71               43.411              
O              31.508              74.716              43.205              
H              30.777              76.016              45.45               
H              32.63               77.631              43.993              
H              33.006              75.834              42.569              
H              33.095              75.418              44.146              
H              30.616              75.064              43.494              
N              29.774              77.436              42.516              
C              28.998              78.104              41.476              
C              28.919              79.581              41.864              
O              28.395              80.345              41.073              
C              27.606              77.488              41.258              
C              27.59               76.043              40.656              
C              26.248              75.343              40.74               
C              28.069              76.034              39.211              
O              29.298              80.162              42.857              
H              29.362              76.812              43.229              
H              29.482              78.031              40.616              
H              27.149              77.434              42.135              
H              27.106              78.063              40.628              
H              28.292              75.499              41.145              
H              25.56               75.872              40.241              
H              26.318              74.429              40.337              
H              25.97               75.26               41.698              
H              29.005              76.384              39.167              
H              28.047              75.098              38.857              
H              27.471              76.614              38.657              
H              10.4921             60.6999             58.4184             
