262
4.xyz
C              1.797               -12.928             -48.315             
O              0.766               -12.461             -47.831             
N              2.74                -12.148             -48.865             
C              2.517               -10.697             -48.81              
C              1.278               -10.229             -49.581             
O              0.776               -9.146              -49.312             
C              3.801               -10.119             -49.422             
C              4.479               -11.249             -50.094             
C              4.077               -12.489             -49.362             
H              2.471               -10.382             -47.842             
H              3.574               -9.384              -50.078             
H              4.383               -9.719              -48.7               
H              4.205               -11.302             -51.068             
H              5.485               -11.127             -50.069             
H              4.035               -13.28              -49.971             
H              4.696               -12.686             -48.601             
N              0.783               -11.028             -50.516             
C              -0.402              -10.626             -51.27              
C              -1.702              -11.232             -50.709             
O              -2.771              -11.084             -51.299             
C              -0.208              -10.976             -52.749             
C              0.753               -9.984              -53.441             
C              1.252               -10.437             -54.806             
H              1.282               -11.914             -50.658             
H              -0.487              -9.619              -51.207             
H              0.187               -11.878             -52.821             
H              -1.079              -10.925             -53.213             
H              0.272               -9.109              -53.549             
H              1.544               -9.846              -52.838             
O              2.326               -11.032             -54.918             
N              0.491               -10.126             -55.854             
H              0.768               -10.383             -56.793             
H              -0.38               -9.622              -55.692             
N              -1.613              -11.882             -49.548             
C              -2.794              -12.476             -48.904             
C              -3.717              -11.449             -48.28              
O              -3.254              -10.513             -47.643             
C              -2.38               -13.452             -47.805             
C              -2.489              -14.893             -48.192             
C              -2.174              -15.803             -47.03              
H              -0.66               -11.932             -49.146             
H              -3.314              -12.971             -49.622             
H              -1.426              -13.258             -47.552             
H              -2.964              -13.29              -47.001             
H              -3.42               -15.083             -48.499             
H              -1.845              -15.086             -48.93              
O              -1.015              -16.167             -46.81              
N              -3.208              -16.176             -46.271             
H              -3.075              -16.799             -45.48              
H              -4.134              -15.823             -46.501             
N              -5.024              -11.631             -48.443             
C              -5.984              -10.789             -47.746             
C              -5.933              -11.053             -46.242             
O              -5.947              -12.204             -45.807             
C              -7.391              -11.017             -48.287             
H              -5.285              -12.396             -49.085             
H              -5.751              -9.824              -47.908             
H              -7.336              -11.373             -49.219             
H              -7.868              -11.675             -47.706             
H              -7.891              -10.152             -48.29              
N              -5.845              -9.977              -45.459             
C              -5.717              -10.052             -44                 
C              -6.255              -8.755              -43.393             
O              -5.839              -7.666              -43.775             
C              -4.255              -10.279             -43.589             
C              -4.025              -10.277             -42.106             
C              -4.354              -11.377             -41.329             
C              -3.462              -9.173              -41.48              
C              -4.129              -11.387             -39.965             
C              -3.247              -9.175              -40.104             
C              -3.587              -10.282             -39.35              
H              -5.875              -9.067              -45.977             
H              -6.318              -10.785             -43.692             
H              -3.978              -11.161             -43.943             
H              -3.716              -9.55               -43.986             
H              -4.762              -12.183             -41.762             
H              -3.208              -8.372              -42.018             
H              -4.367              -12.209             -39.429             
H              -2.841              -8.356              -39.664             
H              -3.439              -10.281             -38.359             
N              -7.2                -8.872              -42.476             
C              -7.746              -7.693              -41.82              
C              -7.718              -7.884              -40.323             
O              -8.008              -8.964              -39.818             
C              -9.178              -7.424              -42.301             
C              -9.307              -7.356              -43.795             
C              -9.641              -8.489              -44.527             
C              -9.095              -6.171              -44.474             
C              -9.752              -8.437              -45.898             
C              -9.213              -6.114              -45.855             
C              -9.547              -7.239              -46.566             
H              -7.506              -9.837              -42.273             
H              -7.13               -6.93               -42.032             
H              -9.747              -8.162              -41.976             
H              -9.462              -6.555              -41.927             
H              -9.804              -9.352              -44.051             
H              -8.854              -5.342              -43.965             
H              -9.982              -9.273              -46.416             
H              -9.048              -5.23               -46.331             
H              -9.645              -7.206              -47.561             
N              -7.369              -6.834              -39.6               
C              -7.402              -6.901              -38.148             
C              -8.525              -5.991              -37.691             
O              -8.497              -4.794              -37.966             
C              -6.058              -6.472              -37.559             
C              -5.753              -6.662              -36.083             
C              -6.031              -8.086              -35.698             
C              -4.292              -6.321              -35.816             
H              -7.084              -6                  -40.133             
H              -7.614              -7.831              -37.874             
H              -5.331              -6.962              -38.079             
H              -5.942              -5.481              -37.763             
H              -6.331              -6.048              -35.55              
H              -5.456              -8.707              -36.237             
H              -5.833              -8.225              -34.724             
H              -6.995              -8.307              -35.868             
H              -4.119              -5.369              -36.072             
H              -4.092              -6.447              -34.844             
H              -3.705              -6.923              -36.357             
N              -9.537              -6.565              -37.049             
C              -10.703             -5.802              -36.581             
C              -10.599             -5.475              -35.09              
O              -10.108             -6.288              -34.317             
C              -11.983             -6.592              -36.864             
C              -12.126             -7.027              -38.324             
C              -13.425             -7.823              -38.568             
C              -12.033             -5.82               -39.244             
H              -9.438              -7.591              -36.905             
H              -10.743             -4.936              -37.094             
H              -11.967             -7.408              -36.311             
H              -12.752             -6.016              -36.648             
H              -11.343             -7.603              -38.575             
H              -14.205             -7.249              -38.332             
H              -13.47              -8.082              -39.53              
H              -13.417             -8.639              -37.996             
H              -11.146             -5.373              -39.122             
H              -12.128             -6.116              -40.196             
H              -12.764             -5.173              -39.023             
N              -11.044             -4.283              -34.692             
C              -10.97              -3.873              -33.293             
C              -12.396             -3.852              -32.776             
O              -13.25              -3.203              -33.364             
C              -10.308             -2.485              -33.107             
C              -10.239             -2.129              -31.636             
C              -8.903              -2.458              -33.707             
H              -11.436             -3.69               -35.445             
H              -10.467             -4.564              -32.792             
H              -10.895             -1.815              -33.547             
H              -9.463              -1.519              -31.473             
H              -11.084             -1.669              -31.36              
H              -10.124             -2.962              -31.092             
H              -8.77               -1.594              -34.19              
H              -8.232              -2.542              -32.972             
H              -8.805              -3.221              -34.344             
N              -12.651             -4.602              -31.71              
C              -14.016             -4.877              -31.273             
C              -14.878             -5.378              -32.45              
O              -15.999             -4.925              -32.657             
C              -14.614             -3.635              -30.605             
C              -13.95              -3.323              -29.261             
H              -11.81              -4.969              -31.223             
H              -13.975             -5.628              -30.608             
H              -14.482             -2.856              -31.206             
H              -15.581             -3.795              -30.446             
O              -13.854             -4.192              -28.384             
N              -13.462             -2.091              -29.109             
H              -13.551             -1.431              -29.857             
H              -13.014             -1.831              -28.259             
N              -14.304             -6.312              -33.216             
C              -14.963             -7.023              -34.321             
C              -15.395             -6.167              -35.505             
O              -16.135             -6.637              -36.372             
C              -16.165             -7.8                -33.792             
C              -15.757             -8.786              -32.724             
C              -16.785             -9.875              -32.533             
O              -17.655             -9.713              -31.666             
O              -16.727             -10.887             -33.255             
H              -13.296             -6.505              -32.951             
H              -14.337             -7.767              -34.654             
H              -16.781             -7.159              -33.392             
H              -16.547             -8.301              -34.535             
H              -14.917             -9.214              -33                 
H              -15.671             -8.306              -31.872             
N              -14.905             -4.941              -35.567             
C              -15.233             -4.073              -36.688             
C              -14.012             -3.285              -37.224             
O              -13.016             -3.191              -36.588             
C              -16.419             -3.162              -36.398             
C              -16.185             -2.266              -35.2               
C              -15.541             -0.972              -35.607             
N              -15.656             0.142               -34.679             
C              -14.845             0.382               -33.661             
N              -13.892             -0.477              -33.336             
N              -15.009             1.468               -32.931             
H              -14.295             -4.664              -34.783             
H              -15.596             -4.636              -37.449             
H              -16.573             -2.587              -37.19              
H              -17.21              -3.728              -36.212             
H              -17.059             -2.063              -34.763             
H              -15.583             -2.73               -34.553             
H              -14.552             -1.152              -35.777             
H              -15.94              -0.691              -36.503             
H              -16.425             0.793               -34.824             
H              -13.754             -1.313              -33.865             
H              -13.296             -0.288              -32.548             
H              -15.736             2.122               -33.159             
H              -14.412             1.648               -32.148             
N              -14.135             -2.775              -38.439             
C              -13.076             -1.991              -39.056             
C              -12.894             -0.643              -38.377             
O              -13.859             0.08                -38.158             
C              -13.368             -1.765              -40.539             
O              -13.302             -2.989              -41.258             
H              -15.042             -2.98               -38.909             
H              -12.21              -2.505              -38.962             
H              -14.281             -1.384              -40.634             
H              -12.691             -1.138              -40.908             
H              -12.946             -3.705              -40.66              
N              -11.645             -0.291              -38.086             
C              -11.349             1.05                -37.593             
C              -11.515             2.065               -38.728             
O              -11.315             1.735               -39.9               
C              -9.931              1.115               -37.023             
C              -9.728              0.27                -35.785             
S              -10.545             1                   -34.338             
C              -9.485              2.4                 -34.021             
H              -10.933             -1.021              -38.234             
H              -12.012             1.277               -36.878             
H              -9.281              0.809               -37.732             
H              -9.716              2.075               -36.797             
H              -10.088             -0.668              -35.96              
H              -8.728              0.166               -35.613             
H              -8.8                2.478               -34.748             
H              -10.031             3.24                -33.993             
H              -9.019              2.281               -33.141             
N              -11.883             3.294               -38.379             
C              -11.956             4.377               -39.359             
C              -10.598             4.635               -40.011             
O              -10.502             4.929               -41.208             
C              -12.462             5.678               -38.711             
C              -12.507             6.793               -39.74              
C              -13.835             5.453               -38.094             
H              -12.109             3.416               -37.375             
H              -12.6               4.1                 -40.084             
H              -11.802             5.946               -38.017             
H              -12.872             6.44                -40.602             
H              -13.095             7.532               -39.41              
H              -11.584             7.148               -39.892             
H              -14.516             5.978               -38.604             
H              -14.06              4.48                -38.135             
H              -13.822             5.755               -37.141             
N              -9.539              4.515               -39.22              
C              -8.2                4.643               -39.758             
C              -7.675              6.061               -39.575             
O              -6.345              6.155               -40.041             
H              -9.75               4.33                -38.226             
H              -8.23               4.414               -40.736             
H              -8.247              6.686               -40.094             
H              -7.698              6.29                -38.608             
H              -6.34               6.165               -41.041             
H              1.98406             -13.9778            -48.2808            
H              -7.5343             3.93493             -39.2675            
