208
4.xyz
C              17.371              3.123               7.801               
C              17.677              2.411               6.466               
O              17.341              1.237               6.317               
C              16.253              4.169               7.638               
C              14.941              3.598               7.132               
S              13.801              4.909               6.645               
C              14.537              5.416               5.089               
H              17.076              2.425               8.456               
H              16.09               4.608               8.531               
H              16.567              4.877               6.992               
H              15.135              2.978               6.346               
H              14.531              3.018               7.863               
H              14.609              6.414               5.063               
H              15.449              5.014               5.004               
H              13.964              5.104               4.331               
N              18.353              3.109               5.532               
C              18.736              2.568               4.216               
C              19.769              1.454               4.343               
O              19.616              0.416               3.691               
C              19.231              3.683               3.298               
S              17.993              4.955               2.95                
H              18.587              4.088               5.829               
H              17.909              2.184               3.787               
H              20.015              4.12                3.733               
H              19.509              3.273               2.432               
H              17.967              5.134               1.967               
N              20.81               1.651               5.197               
C              21.841              0.644               5.445               
C              21.232              -0.643              6.012               
O              21.659              -1.722              5.613               
C              22.941              1.17                6.389               
C              23.882              2.196               5.781               
O              23.926              2.305               4.526               
O              24.592              2.873               6.552               
H              20.799              2.589               5.655               
H              22.248              0.407               4.555               
H              22.486              1.582               7.183               
H              23.479              0.381               6.695               
N              20.218              -0.533              6.898               
C              19.547              -1.703              7.495               
C              18.859              -2.533              6.421               
O              19.038              -3.752              6.38                
C              18.536              -1.267              8.559               
C              19.157              -0.765              9.838               
H              19.954              0.449               7.121               
H              20.266              -2.275              7.9                 
H              17.968              -0.537              8.169               
H              17.95               -2.054              8.773               
O              20.31               -1.059              10.158              
N              18.37               -0.069              10.642              
H              17.414              0.095               10.392              
H              18.726              0.296               11.504              
N              18.118              -1.86               5.521               
C              17.422              -2.523              4.425               
C              18.404              -3.185              3.462               
O              18.094              -4.242              2.931               
C              16.531              -1.536              3.693               
H              18.09               -0.83               5.681               
H              16.819              -3.236              4.807               
H              15.628              -1.515              4.123               
H              16.937              -0.623              3.733               
H              16.436              -1.814              2.737               
N              19.601              -2.589              3.267               
C              20.617              -3.168              2.374               
C              21.41               -4.297              3.046               
O              21.99               -5.133              2.353               
C              21.532              -2.083              1.783               
C              20.785              -1.106              0.871               
S              21.865              0.099               0.076               
C              22.137              1.218               1.401               
H              19.733              -1.709              3.792               
H              20.141              -3.558              1.573               
H              21.946              -1.562              2.532               
H              22.256              -2.523              1.248               
H              20.27               -1.654              0.171               
H              20.061              -0.636              1.43                
H              21.814              0.823               2.269               
H              23.118              1.426               1.492               
H              21.643              2.081               1.242               
N              21.438              -4.325              4.385               
C              22.106              -5.39               5.141               
C              21.176              -6.621              5.234               
O              21.63               -7.754              5.042               
C              22.541              -4.873              6.532               
O              23.505              -3.84               6.354               
C              23.141              -5.973              7.417               
H              20.946              -3.527              4.841               
H              22.931              -5.664              4.65                
H              21.728              -4.48               7                   
H              23.92               -5.605              7.925               
H              22.448              -6.299              8.06                
H              23.447              -6.733              6.843               
H              23.058              -2.985              6.063               
N              19.89               -6.403              5.561               
C              18.965              -7.528              5.739               
C              18.535              -8.185              4.417               
O              18.454              -9.418              4.348               
C              17.746              -7.12               6.592               
C              16.704              -8.208              6.729               
C              16.81               -9.183              7.718               
C              15.616              -8.27               5.865               
C              15.857              -10.2               7.836               
C              14.679              -9.294              5.953               
C              14.796              -10.252             6.945               
O              13.846              -11.243             7.017               
H              19.627              -5.417              5.67                
H              19.432              -8.235              6.298               
H              18.074              -6.881              7.501               
H              17.32               -6.33               6.161               
H              17.579              -9.161              8.357               
H              15.503              -7.564              5.166               
H              15.944              -10.883             8.561               
H              13.922              -9.337              5.299               
H              13.99               -11.776             7.849               
N              18.205              -7.368              3.408               
C              17.7                -7.811              2.106               
C              18.795              -7.971              1.07                
O              19.711              -7.154              1.029               
C              16.659              -6.827              1.591               
C              15.541              -6.572              2.569               
H              18.344              -6.345              3.638               
H              17.285              -8.725              2.248               
H              17.116              -5.958              1.393               
H              16.268              -7.195              0.746               
O              14.656              -7.4                2.735               
N              15.581              -5.438              3.269               
H              16.343              -4.802              3.115               
H              14.872              -5.227              3.928               
N              18.673              -8.994              0.191               
C              19.653              -9.254              -0.871              
C              19.583              -8.211              -1.982              
O              18.542              -7.569              -2.107              
C              19.539              -10.689             -1.402              
C              20.231              -11.664             -0.467              
C              20.126              -13.089             -0.95               
N              20.898              -13.99              -0.093              
C              21.265              -15.221             -0.434              
N              20.927              -15.717             -1.618              
N              21.985              -15.961             0.4                 
H              17.822              -9.576              0.339               
H              20.578              -9.233              -0.466              
H              18.588              -10.925             -1.45               
H              19.981              -10.73              -2.277              
H              21.2                -11.425             -0.398              
H              19.811              -11.607             0.44                
H              19.171              -13.36              -0.93               
H              20.483              -13.135             -1.876              
H              21.169              -13.653             0.817               
H              20.413              -15.173             -2.276              
H              21.195              -16.658             -1.857              
H              22.266              -15.574             1.283               
H              22.246              -16.89              0.154               
N              20.66               -8.004              -2.792              
C              20.636              -6.914              -3.788              
C              19.56               -6.968              -4.872              
O              19.207              -5.911              -5.402              
C              22.037              -6.968              -4.404              
C              22.885              -7.583              -3.333              
C              21.994              -8.643              -2.757              
H              20.602              -6.001              -3.3                
H              22.039              -7.534              -5.23               
H              22.36               -6.049              -4.632              
H              23.71               -7.98               -3.726              
H              23.127              -6.903              -2.646              
H              21.997              -9.471              -3.314              
H              22.247              -8.868              -1.817              
N              19.029              -8.163              -5.193              
C              18.009              -8.302              -6.239              
C              16.569              -8.151              -5.714              
O              15.62               -8.48               -6.428              
C              18.202              -9.622              -7.02               
C              18.134              -10.9               -6.192              
O              18.128              -10.803             -4.932              
O              18.146              -11.997             -6.795              
H              19.4                -8.959              -4.644              
H              18.157              -7.55               -6.902              
H              17.489              -9.661              -7.727              
H              19.099              -9.579              -7.469              
N              16.407              -7.615              -4.494              
C              15.098              -7.422              -3.856              
C              14.571              -5.993              -3.98               
O              15.353              -5.044              -4.091              
C              15.14               -7.847              -2.372              
O              15.932              -6.909              -1.634              
C              15.64               -9.286              -2.164              
H              17.308              -7.342              -4.03               
H              14.434              -8.045              -4.304              
H              14.192              -7.828              -2                  
H              15.08               -9.914              -2.705              
H              16.594              -9.352              -2.457              
H              15.57               -9.525              -1.196              
H              16.911              -7.079              -1.79               
N              13.236              -5.843              -3.903              
C              12.538              -4.553              -3.961              
C              10.997              -4.769              -3.944              
C              10.238              -3.497              -3.568              
C              10.507              -5.301              -5.291              
H              12.721              -6.758              -3.794              
H              12.758              -4.115              -4.835              
H              10.799              -5.448              -3.237              
H              10.873              -2.726              -3.549              
H              9.524               -3.326              -4.245              
H              9.824               -3.613              -2.666              
H              11.253              -5.25               -5.953              
H              10.216              -6.25               -5.181              
H              9.738               -4.744              -5.602              
H              12.8928             -3.88228            -3.15168            
H              18.2503             3.59249             8.18314             
