189
5.xyz
C              3.469               18.456              31.22               
C              2.544               17.422              30.598              
O              2.973               16.598              29.772              
C              3.873               18.002              32.625              
C              5.011               18.807              33.19               
H              4.272               18.534              30.627              
H              3.08                18.098              33.223              
H              4.147               17.044              32.575              
O              5.691               19.563              32.471              
N              5.242               18.679              34.477              
H              4.678               18.063              35.035              
H              5.984               19.194              34.915              
N              1.271               17.439              31.02               
C              0.325               16.458              30.569              
C              0.157               16.546              29.048              
O              0.123               15.535              28.361              
C              -1.007              16.613              31.317              
S              -2.28               15.445              30.773              
H              1.052               18.208              31.682              
H              0.676               15.54               30.782              
H              -0.837              16.463              32.284              
H              -1.342              17.536              31.161              
H              -1.842              14.625              30.407              
N              0.013               17.78               28.537              
C              -0.249              17.968              27.099              
C              1.017               17.712              26.263              
O              0.938               17.322              25.092              
C              -0.818              19.347              26.898              
C              -2.148              19.557              27.529              
C              -2.573              20.994              27.523              
C              -3.959              21.15               28.065              
N              -4.359              22.542              28.203              
H              0.098               18.549              29.21               
H              -0.959              17.316              26.812              
H              -0.17               20.013              27.281              
H              -0.899              19.512              25.909              
H              -2.843              19.011              27.037              
H              -2.122              19.23               28.486              
H              -1.943              21.523              28.09               
H              -2.553              21.337              26.586              
H              -4.607              20.671              27.449              
H              -4.011              20.692              28.969              
H              -4.66               22.726              29.144              
H              -3.587              23.149              27.987              
H              -5.117              22.75               27.577              
N              2.186               17.954              26.824              
C              3.457               17.605              26.174              
C              3.643               16.108              26.081              
O              4.172               15.559              25.07               
C              4.684               18.182              26.884              
C              4.883               19.719              26.835              
C              6.055               20.139              27.75               
O              6.964               19.286              28.027              
O              6.07                21.249              28.276              
H              2.14                18.41               27.76               
H              3.478               18.012              25.249              
H              4.626               17.933              27.847              
H              5.495               17.777              26.473              
H              5.119               19.963              25.929              
H              4.082               20.138              27.178              
N              3.254               15.406              27.128              
C              3.503               14.011              27.149              
C              2.484               13.139              26.42               
O              2.884               12.123              25.825              
C              3.688               13.543              28.607              
C              4.387               12.227              28.709              
C              5.785               12.151              28.574              
C              3.683               11.052              28.944              
C              6.448               10.921              28.593              
C              4.337               9.798               28.98               
C              5.708               9.741               28.8                
O              6.395               8.541               28.856              
H              2.786               15.941              27.871              
H              4.421               13.829              26.714              
H              4.224               14.232              29.08               
H              2.786               13.462              29.015              
H              6.313               12.991              28.462              
H              2.699               11.081              29.092              
H              7.432               10.873              28.463              
H              3.806               8.972               29.134              
H              5.959               7.949               29.53               
N              1.199               13.475              26.514              
C              0.11                12.622              26.111              
C              -0.588              13.142              24.829              
O              -0.682              14.362              24.624              
C              -0.916              12.523              27.21               
C              -0.34               11.977              28.471              
O              -0.179              12.731              29.44               
N              -0.1                10.699              28.514              
H              1.05                14.442              26.918              
H              0.493               11.719              25.874              
H              -1.281              13.436              27.389              
H              -1.654              11.922              26.903              
H              -0.295              10.115              27.715              
H              0.284               10.273              29.34               
N              -1.096              12.217              23.996              
C              -1.93               12.618              22.842              
C              -3.304              13.268              23.228              
O              -3.838              12.999              24.32               
C              -2.153              11.305              22.064              
C              -1.684              10.192              22.94               
C              -0.991              10.743              24.153              
H              -1.417              13.246              22.23               
H              -3.134              11.198              21.835              
H              -1.638              11.323              21.193              
H              -2.477              9.603               23.217              
H              -1.054              9.574               22.417              
H              -1.442              10.454              25.001              
H              -0.026              10.468              24.186              
N              -3.849              14.141              22.37               
C              -4.992              15.004              22.664              
C              -6.29               14.259              22.962              
O              -7.166              14.816              23.618              
C              -5.139              15.847              21.404              
C              -4.421              15.108              20.325              
C              -3.277              14.438              21.039              
H              -4.767              15.644              23.431              
H              -6.114              15.968              21.167              
H              -4.738              16.764              21.539              
H              -5.022              14.431              19.9                
H              -4.085              15.74               19.627              
H              -3.003              13.595              20.582              
H              -2.491              15.047              21.125              
N              -6.405              13.043              22.485              
C              -7.63               12.32               22.684              
C              -7.442              11.266              23.814              
O              -8.336              10.49               24.081              
C              -8.202              11.799              21.332              
C              -8.292              12.847              20.152              
C              -9.043              14.158              20.475              
O              -10.133             14.115              21.078              
O              -8.526              15.26               20.168              
H              -5.584              12.676              21.984              
H              -8.371              12.939              22.951              
H              -7.615              11.073              21.015              
H              -9.121              11.482              21.494              
H              -7.367              13.084              19.905              
H              -8.766              12.406              19.408              
N              -6.29               11.305              24.521              
C              -6.104              10.512              25.705              
C              -6.982              11.063              26.816              
O              -7.325              12.232              26.848              
C              -4.665              10.469              26.164              
O              -4.25               11.757              26.656              
H              -5.578              11.951              24.126              
H              -6.404              9.575               25.515              
H              -4.568              9.81                26.901              
H              -4.078              10.226              25.4                
H              -4.057              12.351              25.881              
N              -7.391              10.178              27.713              
C              -8.131              10.583              28.873              
C              -7.349              11.599              29.721              
O              -7.957              12.531              30.257              
C              -8.489              9.345               29.719              
C              -9.397              9.718               30.86               
C              -10.819             10.058              30.413              
O              -11.534             10.706              31.198              
O              -11.202             9.761               29.277              
H              -7.131              9.193               27.5                
H              -9.013              10.999              28.602              
H              -8.962              8.725               29.139              
H              -7.661              8.995               30.086              
H              -9.464              8.953               31.477              
H              -9.037              10.519              31.307              
N              -6.03               11.484              29.784              
C              -5.236              12.453              30.569              
C              -5.359              13.868              30.029              
O              -5.541              14.828              30.797              
C              -3.769              12.073              30.59               
C              -3.54               10.696              31.126              
C              -3.983              10.331              32.384              
C              -2.871              9.779               30.372              
C              -3.759              9.035               32.881              
C              -2.653              8.51                30.846              
C              -3.094              8.158               32.078              
O              -2.828              6.876               32.475              
H              -5.619              10.701              29.266              
H              -5.587              12.44               31.517              
H              -3.42               12.113              29.659              
H              -3.284              12.721              31.168              
H              -4.47               10.988              32.958              
H              -2.534              10.028              29.461              
H              -4.081              8.788               33.782              
H              -2.161              7.84                30.27               
H              -1.849              6.697               32.382              
N              -5.18               14.015              28.707              
H              -4.95               13.142              28.205              
H              -5.2702             14.9129             28.2768             
H              2.9915              19.4175             31.2244             
