204
2.xyz
C              4.884               9.213               38.325              
O              6.002               9.428               38.8                
N              4.344               8.018               38.208              
C              5.03                6.79                38.631              
C              5.771               6.213               37.42               
O              5.204               6.078               36.352              
C              4.024               5.76                39.167              
C              3.524               5.998               40.592              
C              2.592               4.9                 41.117              
C              3.239               3.536               41.074              
N              2.523               2.462               41.835              
H              3.385               8.008               37.789              
H              5.695               7.017               39.335              
H              3.228               5.755               38.555              
H              4.46                4.855               39.136              
H              4.319               6.064               41.209              
H              3.031               6.877               40.622              
H              2.353               5.116               42.061              
H              1.771               4.888               40.552              
H              3.323               3.24                40.103              
H              4.188               3.608               41.437              
H              2.361               1.686               41.229              
H              3.088               2.177               42.607              
H              1.653               2.821               42.166              
N              7.059               5.914               37.577              
C              7.821               5.337               36.403              
C              7.182               4.058               35.952              
O              7.248               3.714               34.755              
C              9.282               5.082               36.686              
C              10.123              6.333               36.718              
C              11.53               5.987               37.181              
N              11.426              5.457               38.525              
C              12.411              5.4                 39.406              
N              13.623              5.81                39.072              
N              12.163              4.928               40.64               
H              7.473               6.087               38.479              
H              7.789               6.017               35.669              
H              9.36                4.634               37.574              
H              9.644               4.484               35.974              
H              10.185              6.722               35.81               
H              9.74                6.981               37.36               
H              11.891              5.304               36.578              
H              12.06               6.811               37.186              
H              10.52               5.097               38.819              
H              13.816              6.185               38.169              
H              14.374              5.745               39.745              
H              11.237              4.646               40.881              
H              12.903              4.865               41.302              
N              6.643               3.308               36.903              
C              6.016               2.066               36.557              
C              4.882               2.29                35.57               
O              4.659               1.471               34.723              
C              5.587               1.258               37.79               
O              4.755               2.051               38.642              
C              6.798               0.82                38.558              
H              6.716               3.686               37.858              
H              6.697               1.463               36.119              
H              5.044               0.446               37.481              
H              6.73                -0.156              38.795              
H              7.63                0.958               38.009              
H              6.885               1.35                39.409              
H              5.084               3.001               38.667              
N              4.208               3.437               35.61               
C              3.135               3.719               34.654              
C              3.633               4.426               33.363              
O              3.016               4.343               32.291              
C              2.014               4.501               35.392              
C              1.474               3.799               36.643              
C              0.575               4.686               37.535              
O              0.525               5.891               37.295              
O              -0.081              4.181               38.485              
H              4.499               4.093               36.353              
H              2.674               2.855               34.392              
H              2.395               5.361               35.673              
H              1.268               4.607               34.763              
H              0.926               3.032               36.356              
H              2.239               3.517               37.197              
N              4.822               5.019               33.424              
C              5.33                5.83                32.362              
C              6.858               5.717               32.346              
O              7.561               6.656               32.728              
C              4.899               7.258               32.624              
H              5.341               4.834               34.317              
H              4.986               5.496               31.484              
H              4.251               7.281               33.386              
H              5.698               7.815               32.854              
H              4.46                7.634               31.807              
N              7.396               4.56                31.926              
C              8.805               4.288               32.233              
C              9.806               5.367               31.812              
O              10.769              5.587               32.512              
C              9.046               2.949               31.519              
C              7.711               2.255               31.628              
C              6.691               3.339               31.475              
H              8.913               4.078               33.235              
H              9.291               3.096               30.565              
H              9.755               2.425               31.979              
H              7.622               1.565               30.904              
H              7.631               1.802               32.52               
H              6.397               3.442               30.522              
H              5.883               3.174               32.048              
N              9.598               6.023               30.681              
C              10.566              7.055               30.225              
C              10.154              8.488               30.505              
O              10.727              9.453               29.983              
H              8.751               5.777               30.16               
H              11.467              6.866               30.668              
H              10.715              6.932               29.222              
N              9.158               8.633               31.352              
C              8.614               9.979               31.657              
C              9.634               10.98               32.075              
O              9.684               12.116              31.593              
C              7.552               9.852               32.774              
C              6.773               11.117              33.013              
C              5.637               11.412              32.267              
C              7.155               12.038              33.982              
C              4.882               12.559              32.509              
C              6.432               13.188              34.192              
C              5.288               13.452              33.446              
O              4.56                14.632              33.685              
H              8.791               7.771               31.778              
H              8.149               10.309              30.808              
H              6.919               9.131               32.51               
H              8.024               9.605               33.614              
H              5.35                10.787              31.535              
H              7.97                11.855              34.533              
H              4.037               12.71               31.981              
H              6.726               13.852              34.891              
H              3.917               14.759              32.938              
N              10.435              10.606              33.055              
C              11.374              11.521              33.629              
C              12.603              11.757              32.743              
O              13.313              12.709              32.978              
C              11.777              11.046              35.029              
C              10.607              11.174              36.016              
C              10.331              12.373              36.647              
C              9.779               10.089              36.26               
C              9.25                12.503              37.501              
C              8.695               10.183              37.114              
C              8.443               11.39               37.756              
O              7.374               11.525              38.636              
H              10.321              9.618               33.358              
H              10.919              12.422              33.762              
H              12.03               10.098              34.981              
H              12.51               11.612              35.357              
H              10.925              13.167              36.485              
H              9.97                9.215               35.805              
H              9.042               13.378              37.933              
H              8.101               9.399               37.27               
H              6.847               10.68               38.631              
N              12.74               10.98               31.68               
C              13.729              11.3                30.626              
C              13.229              12.428              29.734              
O              14.014              13.074              29.068              
C              14.02               10.073              29.754              
C              14.394              8.783               30.509              
C              15.383              8.983               31.647              
O              16.524              8.503               31.511              
O              15.023              9.594               32.679              
H              12.123              10.157              31.642              
H              14.596              11.566              31.059              
H              13.205              9.875               29.228              
H              14.782              10.294              29.163              
H              13.565              8.409               30.893              
H              14.805              8.162               29.86               
N              11.919              12.665              29.738              
C              11.281              13.574              28.804              
C              10.767              14.857              29.436              
O              10.958              15.947              28.918              
C              10.118              12.79               28.095              
C              9.119               13.734              27.435              
C              10.705              11.795              27.103              
H              11.392              12.137              30.474              
H              11.969              13.831              28.095              
H              9.63                12.29               28.806              
H              8.197               13.36               27.527              
H              9.162               14.628              27.88               
H              9.344               13.832              26.466              
H              10.368              12.006              26.186              
H              11.702              11.862              27.12               
H              10.426              10.87               27.359              
N              10.097              14.725              30.587              
C              9.565               15.853              31.318              
C              10.546              16.342              32.331              
O              10.8                15.678              33.335              
C              8.277               15.42               31.975              
C              7.284               14.991              30.899              
C              7.706               16.495              32.904              
C              6.8                 16.107              30.006              
H              9.996               13.732              30.904              
H              9.44                16.592              30.643              
H              8.461               14.631              32.549              
H              7.717               14.285              30.332              
H              6.49                14.576              31.354              
H              6.893               16.139              33.358              
H              8.392               16.739              33.586              
H              7.465               17.3                32.367              
H              7.579               16.517              29.533              
H              6.157               15.741              29.334              
H              6.343               16.803              30.56               
N              11.057              17.542              32.108              
H              10.615              18.072              31.33               
H              11.8279             17.9139             32.6631             
H              4.25093             10.0331             38.036              
