285
3.xyz
C              -2.869              39.596              32.38               
C              -1.549              40.391              32.314              
O              -1.463              41.411              31.674              
C              -3.416              39.385              30.979              
C              -4.756              38.628              31.036              
C              -2.411              38.668              30.116              
C              -4.736              37.311              31.789              
H              -2.645              38.739              32.859              
H              -3.592              40.274              30.568              
H              -5.438              39.234              31.459              
H              -5.051              38.452              30.09               
H              -2.762              38.583              29.182              
H              -1.551              39.18               30.096              
H              -2.237              37.753              30.483              
H              -4.466              37.477              32.736              
H              -5.648              36.905              31.766              
H              -4.082              36.694              31.356              
N              -0.514              39.88               32.969              
C              0.754               40.593              33.091              
C              1.644               40.511              31.862              
O              2.462               41.392              31.633              
C              1.568               40.035              34.269              
C              0.865               39.943              35.632              
C              -0.083              41.108              35.92               
N              0.537               42.41               35.662              
C              -0.097              43.571              35.766              
N              0.546               44.709              35.515              
N              -1.372              43.595              36.141              
H              -0.681              38.94               33.383              
H              0.553               41.577              33.28               
H              1.876               39.107              34.024              
H              2.383               40.615              34.388              
H              0.332               39.093              35.669              
H              1.559               39.922              36.357              
H              -0.884              41.003              35.336              
H              -0.351              41.054              36.879              
H              1.505               42.421              35.389              
H              1.499               44.708              35.228              
H              0.06                45.585              35.616              
H              -1.852              42.735              36.324              
H              -1.85               44.466              36.239              
N              1.547               39.413              31.119              
C              2.367               39.224              29.932              
C              1.48                38.925              28.74               
O              1.359               37.819              28.314              
C              3.435               38.141              30.169              
C              4.371               38.489              31.305              
C              5.329               39.494              31.157              
C              4.208               37.908              32.546              
C              6.15                39.857              32.213              
C              5.01                38.273              33.618              
C              5.987               39.248              33.455              
H              0.851               38.72               31.453              
H              2.821               40.099              29.747              
H              2.972               37.308              30.401              
H              3.968               38.061              29.349              
H              5.423               39.958              30.28               
H              3.498               37.21               32.679              
H              6.859               40.556              32.079              
H              4.881               37.825              34.517              
H              6.569               39.513              34.219              
N              0.844               39.948              28.198              
C              0.016               39.725              26.999              
C              0.821               39.221              25.791              
O              1.997               39.475              25.662              
C              -0.587              41.112              26.718              
C              -0.148              42.001              27.857              
C              0.996               41.372              28.548              
H              -0.745              39.087              27.208              
H              -0.252              41.473              25.839              
H              -1.591              41.06               26.677              
H              0.097               42.924              27.491              
H              -0.934              42.149              28.493              
H              1.875               41.716              28.216              
H              0.95                41.49               29.542              
N              0.187               38.46               24.93               
C              0.868               37.991              23.771              
C              -0.164              37.679              22.706              
O              -1.325              37.346              23.009              
C              1.679               36.723              24.128              
C              2.6                 36.195              23.024              
S              3.703               37.45               22.207              
C              4.563               38.046              23.654              
H              -0.797              38.248              25.163              
H              1.459               38.719              23.42               
H              2.244               36.922              24.944              
H              1.03                35.987              24.379              
H              3.179               35.431              23.416              
H              2.019               35.728              22.305              
H              4.712               39.034              23.576              
H              4.017               37.859              24.473              
H              5.449               37.585              23.735              
N              0.268               37.739              21.456              
C              -0.605              37.478              20.314              
C              0.256               37.084              19.12               
O              1.508               37.164              19.149              
C              -1.393              38.72               19.995              
C              -0.495              39.828              19.535              
O              0.11                40.557              20.388              
O              -0.279              39.871              18.312              
H              1.277               37.986              21.355              
H              -1.168              36.686              20.545              
H              -2.037              38.506              19.271              
H              -1.868              39.01               20.815              
N              -0.386              36.602              18.076              
C              0.379               36.006              17.01               
C              1.065               37.011              16.08               
O              2.081               36.655              15.445              
C              -0.511              35.067              16.189              
C              -1.124              33.918              16.988              
C              -2.178              33.195              16.138              
C              -0.099              32.942              17.453              
H              -1.405              36.685              18.092              
H              1.107               35.414              17.417              
H              -1.255              35.602              15.816              
H              0.043               34.672              15.473              
H              -1.559              34.282              17.806              
H              -1.744              32.833              15.316              
H              -2.571              32.447              16.67               
H              -2.894              33.842              15.884              
H              0.575               33.397              18.045              
H              -0.533              32.199              17.975              
H              0.385               32.541              16.667              
N              0.541               38.233              16.002              
C              1.255               39.303              15.272              
C              2.568               39.655              15.978              
O              3.623               39.807              15.357              
C              0.367               40.533              15.164              
C              0.988               41.691              14.409              
C              -0.017              42.82               14.337              
C              0.428               43.872              13.367              
N              -0.71               44.795              13.11               
H              -0.36               38.367              16.469              
H              1.462               38.974              14.347              
H              -0.478              40.27               14.696              
H              0.147               40.844              16.091              
H              1.793               42.003              14.894              
H              1.216               41.399              13.491              
H              -0.892              42.451              14.038              
H              -0.107              43.228              15.241              
H              1.183               44.387              13.755              
H              0.7                 43.446              12.512              
H              -0.487              45.703              13.464              
H              -0.876              44.851              12.126              
H              -1.528              44.449              13.568              
N              2.508               39.823              17.282              
C              3.711               40.095              18.084              
C              4.709               38.935              17.965              
O              5.874               39.149              17.764              
C              3.324               40.279              19.521              
O              2.394               41.33               19.6                
C              4.511               40.57               20.373              
H              1.559               39.75               17.698              
H              4.149               40.924              17.728              
H              2.876               39.426              19.864              
H              5.149               39.789              20.374              
H              5.005               41.38               20.031              
H              4.231               40.75               21.325              
H              1.5                 41                  19.936              
N              4.24                37.711              17.993              
C              5.156               36.571              17.762              
C              5.79                36.58               16.402              
O              6.972               36.278              16.3                
C              4.466               35.228              17.979              
C              4.104               34.986              19.427              
S              3.622               33.253              19.735              
C              5.155               32.403              19.425              
H              3.24                37.602              18.178              
H              5.889               36.63               18.465              
H              3.627               35.199              17.428              
H              5.079               34.493              17.674              
H              4.899               35.24               20.017              
H              3.343               35.614              19.692              
H              5.744               32.456              20.235              
H              4.974               31.439              19.214              
H              5.628               32.825              18.648              
N              5.029               36.936              15.35               
C              5.626               37.073              14.017              
C              6.745               38.096              13.96               
O              7.753               37.864              13.304              
C              4.563               37.457              12.956              
O              3.59                36.413              12.885              
H              4.038               37.095              15.56               
H              6.013               36.169              13.76               
H              4.125               38.29               13.238              
H              5.008               37.545              12.084              
H              3.047               36.414              13.721              
N              6.551               39.232              14.629              
C              7.571               40.251              14.684              
C              8.789               39.753              15.403              
O              9.887               39.94               14.925              
C              7.083               41.512              15.399              
C              5.986               42.252              14.69               
C              5.404               43.367              15.552              
O              6.131               43.82               16.497              
O              4.257               43.808              15.249              
H              5.625               39.309              15.091              
H              7.82                40.534              13.745              
H              6.743               41.235              16.286              
H              7.857               42.12               15.486              
H              6.354               42.672              13.884              
H              5.255               41.629              14.492              
N              8.583               39.194              16.589              
C              9.686               38.613              17.368              
C              10.46               37.589              16.535              
O              11.67               37.569              16.55               
C              9.153               37.947              18.624              
C              8.718               38.954              19.661              
C              8.272               38.29               20.961              
N              8.088               39.293              21.985              
C              8.022               39.061              23.296              
N              8.097               37.812              23.806              
N              7.862               40.088              24.1                
H              7.6                 39.2                16.915              
H              10.314              39.35               17.636              
H              8.369               37.395              18.378              
H              9.872               37.39               19.014              
H              9.478               39.568              19.877              
H              7.947               39.488              19.312              
H              7.417               37.825              20.786              
H              8.979               37.654              21.233              
H              8                   40.263              21.688              
H              8.225               37.046              23.18               
H              8.026               37.674              24.783              
H              7.81                41.024              23.752              
H              7.789               39.939              25.098              
N              9.753               36.753              15.8                
C              10.422              35.778              14.968              
C              11.29               36.437              13.868              
O              12.478              36.115              13.687              
C              9.392               34.854              14.336              
C              9.935               33.8                13.37               
C              10.76               32.787              14.12               
C              8.819               33.112              12.63               
H              8.73                36.853              15.869              
H              11.036              35.216              15.543              
H              8.922               34.368              15.069              
H              8.744               35.414              13.828              
H              10.5                34.255              12.682              
H              10.196              32.333              14.814              
H              11.115              32.097              13.485              
H              11.531              33.241              14.573              
H              8.293               33.783              12.101              
H              9.196               32.426              12.003              
H              8.206               32.657              13.281              
N              10.683              37.376              13.147              
C              11.413              38.164              12.124              
C              12.603              38.923              12.698              
O              13.692              39.059              12.067              
C              10.364              39.073              11.468              
C              10.833              40.154              10.542              
C              11.104              39.549              9.204               
C              11.514              40.632              8.243               
N              11.488              40.125              6.863               
H              9.679               37.513              13.351              
H              11.743              37.524              11.411              
H              9.718               38.47               10.96               
H              9.825               39.502              12.22               
H              10.124              40.844              10.455              
H              11.668              40.556              10.899              
H              11.844              38.895              9.281               
H              10.281              39.117              8.863               
H              10.881              41.403              8.328               
H              12.44               40.938              8.469               
H              11.205              40.855              6.237               
H              12.401              39.804              6.601               
H              10.84               39.363              6.792               
N              12.438              39.37               13.929              
C              13.488              40.036              14.661              
C              14.548              39.111              15.274              
O              15.429              39.592              15.988              
C              12.875              40.888              15.781              
C              12.109              42.078              15.255              
H              11.482              39.199              14.325              
H              13.983              40.643              14.003              
H              12.254              40.311              16.306              
H              13.615              41.213              16.364              
O              12.252              42.455              14.095              
N              11.328              42.703              16.117              
H              11.27               42.387              17.067              
H              10.789              43.497              15.828              
N              14.488              37.814              14.979              
H              13.668              37.531              14.411              
H              15.202              37.1583             15.2947             
H              -3.57578            40.0953             32.9492             
