200
5.xyz
C              -8.488              26.343              70.796              
O              -9.552              26.618              70.199              
N              -7.517              25.56               70.293              
C              -7.704              24.873              68.987              
C              -8.786              23.803              69.079              
O              -9.629              23.7                68.184              
C              -6.384              24.287              68.39               
C              -6.502              23.051              67.472              
C              -5.415              23.045              66.384              
O              -4.243              23.263              66.77               
O              -5.722              22.84               65.161              
H              -6.672              25.479              70.862              
H              -7.956              25.555              68.293              
H              -5.959              25.011              67.858              
H              -5.806              24.032              69.156              
H              -6.375              22.255              68.018              
H              -7.366              23.087              67.023              
N              -8.747              23.013              70.157              
C              -9.624              21.861              70.301              
C              -11.054             22.23               70.67               
O              -11.983             21.674              70.136              
C              -9.071              20.907              71.333              
C              -9.829              19.611              71.36               
C              -9.686              18.687              70.316              
C              -10.732             19.308              72.406              
C              -10.42              17.504              70.307              
C              -11.461             18.129              72.404              
C              -11.299             17.227              71.357              
O              -11.981             16.036              71.38               
H              -8.044              23.294              70.87               
H              -9.648              21.367              69.411              
H              -8.125              20.711              71.111              
H              -9.143              21.329              72.228              
H              -9.052              18.88               69.571              
H              -10.837             19.959              73.152              
H              -10.32              16.853              69.555              
H              -12.097             17.925              73.144              
H              -11.409             15.337              71.806              
N              -11.227             23.179              71.575              
C              -12.56              23.485              72.107              
C              -13.304             24.649              71.411              
O              -12.669             25.6                70.937              
C              -12.434             23.796              73.577              
C              -11.948             22.596              74.377              
H              -10.37              23.675              71.87               
H              -13.135             22.653              71.97               
H              -11.779             24.536              73.699              
H              -13.326             24.064              73.931              
O              -12.717             21.701              74.683              
N              -10.68              22.594              74.728              
H              -10.085             23.363              74.473              
H              -10.298             21.83               75.251              
N              -14.656             24.583              71.385              
C              -15.432             25.705              70.837              
C              -15.301             26.958              71.713              
O              -15.057             26.838              72.923              
C              -16.875             25.187              70.791              
C              -16.921             23.959              71.646              
C              -15.515             23.454              71.828              
H              -15.152             25.904              69.89               
H              -17.514             25.89               71.139              
H              -17.144             24.972              69.84               
H              -17.344             24.173              72.546              
H              -17.503             23.249              71.209              
H              -15.324             23.231              72.787              
H              -15.338             22.643              71.264              
N              -15.352             28.154              71.075              
C              -14.882             29.409              71.665              
C              -15.648             29.872              72.906              
O              -15.077             30.577              73.756              
C              -15.028             30.429              70.512              
C              -15.965             29.811              69.531              
C              -15.808             28.33               69.678              
H              -13.879             29.351              71.871              
H              -15.393             31.3                70.865              
H              -14.13              30.61               70.094              
H              -16.915             30.094              69.724              
H              -15.738             30.107              68.593              
H              -16.676             27.848              69.534              
H              -15.123             27.963              69.041              
N              -16.912             29.467              73.03               
C              -17.698             29.83               74.205              
C              -17.783             28.704              75.215              
O              -18.551             28.802              76.161              
C              -19.091             30.349              73.79               
C              -19.062             31.441              72.695              
C              -18.157             32.636              73.037              
O              -18.197             33.097              74.199              
O              -17.401             33.113              72.149              
H              -17.27              28.896              72.25               
H              -17.288             30.648              74.643              
H              -19.598             29.591              73.43               
H              -19.513             30.744              74.582              
H              -18.714             31.034              71.872              
H              -19.975             31.785              72.586              
N              -16.963             27.664              75.049              
C              -16.861             26.616              76.049              
C              -16.18              27.15               77.299              
O              -15.351             28.054              77.229              
C              -16.081             25.395              75.537              
O              -14.712             25.696              75.43               
H              -16.422             27.675              74.165              
H              -17.79              26.33               76.302              
H              -16.207             24.648              76.18               
H              -16.437             25.147              74.643              
H              -14.531             26.142              74.552              
N              -16.538             26.563              78.43               
C              -15.904             26.82               79.711              
C              -14.379             26.587              79.643              
O              -13.607             27.333              80.252              
C              -16.527             25.865              80.762              
C              -16.31              26.18               82.222              
C              -17.004             25.162              83.122              
O              -17.042             23.936              82.777              
O              -17.56              25.608              84.146              
H              -17.336             25.881              78.32               
H              -16.074             27.771              79.997              
H              -17.513             25.856              80.592              
H              -16.15              24.956              80.584              
H              -15.353             26.134              82.416              
H              -16.701             27.055              82.419              
N              -13.942             25.568              78.894              
C              -12.497             25.297              78.753              
C              -11.784             26.444              78.053              
O              -10.715             26.856              78.502              
C              -12.223             23.98               78.014              
C              -12.709             22.751              78.75               
C              -12.389             22.534              80.075              
C              -13.483             21.794              78.105              
C              -12.822             21.399              80.744              
C              -13.923             20.658              78.765              
C              -13.582             20.469              80.08               
O              -14.02              19.356              80.732              
H              -14.674             25.007              78.439              
H              -12.111             25.199              79.678              
H              -12.682             24.018              77.131              
H              -11.239             23.897              77.883              
H              -11.831             23.208              80.57               
H              -13.729             21.929              77.144              
H              -12.579             21.264              81.708              
H              -14.484             19.984              78.283              
H              -13.777             18.542              80.204              
N              -12.366             26.932              76.949              
C              -11.792             28.054              76.195              
C              -11.768             29.314              77.058              
O              -10.75              29.962              77.135              
C              -12.569             28.293              74.893              
C              -11.842             29.1                73.831              
C              -11.531             30.436              74.04               
C              -11.465             28.521              72.621              
C              -10.879             31.185              73.063              
C              -10.805             29.266              71.641              
C              -10.526             30.597              71.87               
O              -9.875              31.348              70.941              
H              -13.246             26.454              76.677              
H              -10.847             27.819              75.956              
H              -12.8               27.399              74.499              
H              -13.418             28.777              75.121              
H              -11.778             30.875              74.906              
H              -11.667             27.561              72.45               
H              -10.669             32.151              73.236              
H              -10.54              28.832              70.781              
H              -9                  31.658              71.314              
N              -12.855             29.59               77.773              
C              -12.893             30.718              78.734              
C              -11.785             30.66               79.786              
O              -11.067             31.645              80.001              
C              -14.235             30.773              79.459              
C              -15.368             31.283              78.591              
C              -16.699             31.186              79.328              
C              -17.855             31.371              78.361              
N              -19.052             30.666              78.886              
H              -13.663             28.964              77.609              
H              -12.801             31.582              78.21               
H              -14.462             29.853              79.765              
H              -14.14              31.38               80.244              
H              -15.2               32.238              78.357              
H              -15.421             30.734              77.76               
H              -16.77              30.289              79.743              
H              -16.739             31.9                80.013              
H              -18.054             32.341              78.274              
H              -17.606             30.987              77.479              
H              -19.18              29.809              78.386              
H              -18.923             30.469              79.858              
H              -19.859             31.245              78.767              
N              -11.649             29.506              80.445              
C              -10.585             29.308              81.442              
C              -9.207              29.597              80.843              
O              -8.384              30.262              81.474              
C              -10.614             27.872              82.04               
S              -11.999             27.585              83.169              
H              -12.342             28.778              80.2                
H              -10.74              29.954              82.196              
H              -10.682             27.234              81.283              
H              -9.765              27.739              82.537              
H              -11.733             27.852              84.095              
N              -8.974              29.104              79.631              
H              -9.776              28.604              79.203              
H              -8.32607            26.7534             71.7501             
H              -8.08237            29.2192             79.1848             
