339
0.xyz
N              23.401              31.053              92.433              
C              21.991              31.514              92.327              
C              21.594              32.073              90.929              
O              20.48               32.561              90.796              
C              21.689              32.545              93.434              
C              21.852              32.042              94.859              
C              21.542              33.101              95.856              
N              21.696              32.625              97.225              
C              21.475              33.386              98.291              
N              21.285              34.696              98.181              
N              21.495              32.834              99.502              
H              23.413              30.081              92.657              
H              21.382              30.728              92.535              
H              22.306              33.322              93.304              
H              20.743              32.85               93.317              
H              21.235              31.267              95.002              
H              22.798              31.74               94.989              
H              22.16               33.874              95.711              
H              20.596              33.402              95.723              
H              21.984              31.677              97.369              
H              21.286              35.128              97.279              
H              21.138              35.251              99                  
H              21.656              31.852              99.601              
H              21.348              33.4                100.312             
H              23.862              31.203              91.562              
H              23.862              31.569              93.151              
N              22.451              31.98               89.889              
C              22.088              32.475              88.515              
C              21.09               31.532              87.768              
O              20.096              32.01               87.191              
C              23.351              32.746              87.664              
C              24.269              33.783              88.277              
O              23.985              34.33               89.36               
O              25.316              34.038              87.647              
H              23.36               31.55               90.105              
H              21.615              33.355              88.642              
H              23.843              31.887              87.578              
H              23.049              33.065              86.774              
N              21.362              30.199              87.766              
C              20.336              29.193              87.39               
C              19.248              28.941              88.467              
O              18.142              28.496              88.124              
C              21.158              27.905              87.156              
C              22.583              28.337              87.062              
C              22.7                29.581              87.891              
H              19.899              29.45               86.506              
H              21.023              27.263              87.921              
H              20.859              27.451              86.308              
H              23.194              27.613              87.41               
H              22.833              28.52               86.101              
H              22.897              29.37               88.848              
H              23.403              30.198              87.535              
N              19.566              29.204              89.741              
C              18.609              29.018              90.836              
C              17.666              30.194              91.049              
O              16.619              30.018              91.647              
C              19.32               28.674              92.144              
C              19.132              27.219              92.549              
O              18.382              26.473              91.892              
O              19.754              26.818              93.546              
H              20.536              29.546              89.882              
H              18.033              28.214              90.59               
H              20.29               28.846              92.023              
H              18.949              29.253              92.86               
N              18.028              31.382              90.572              
C              17.082              32.509              90.514              
C              16                  32.226              89.464              
O              14.829              32.486              89.701              
C              17.812              33.836              90.235              
C              16.941              35.08               89.998              
C              15.948              35.411              91.121              
H              19.009              31.448              90.251              
H              16.633              32.579              91.405              
H              18.423              34.036              91.018              
H              18.398              33.713              89.417              
H              17.549              35.874              89.873              
H              16.419              34.945              89.146              
O              15.011              34.653              91.389              
N              16.12               36.584              91.739              
H              15.494              36.871              92.477              
H              16.893              37.177              91.449              
N              16.397              31.669              88.325              
C              15.439              31.266              87.286              
C              14.441              30.225              87.823              
O              13.23               30.408              87.748              
C              16.187              30.716              86.061              
C              15.361              30.262              84.842              
C              14.697              31.446              84.157              
C              16.208              29.473              83.851              
H              17.422              31.544              88.23               
H              14.921              32.077              86.997              
H              16.814              31.432              85.74               
H              16.725              29.925              86.362              
H              14.66               29.618              85.153              
H              15.398              32.089              83.846              
H              14.168              31.125              83.371              
H              14.086              31.907              84.802              
H              16.578              28.66               84.301              
H              15.641              29.195              83.075              
H              16.961              30.046              83.526              
N              14.977              29.149              88.376              
C              14.192              28.093              89.029              
C              13.17               28.625              90.029              
O              11.997              28.234              89.988              
C              15.129              27.127              89.765              
C              14.438              25.913              90.36               
C              14.093              24.835              89.559              
C              14.127              25.847              91.723              
C              13.468              23.717              90.076              
C              13.49               24.731              92.252              
C              13.171              23.664              91.415              
O              12.525              22.544              91.88               
H              16.025              29.107              88.311              
H              13.69               27.585              88.306              
H              15.818              26.806              89.118              
H              15.571              27.626              90.508              
H              14.303              24.867              88.574              
H              14.366              26.607              92.317              
H              13.234              22.948              89.473              
H              13.262              24.691              93.221              
H              12.222              21.993              91.104              
N              13.626              29.495              90.931              
C              12.758              30.104              91.948              
C              11.638              30.911              91.335              
O              10.503              30.822              91.787              
C              13.557              31.012              92.881              
O              14.534              30.25               93.565              
H              14.643              29.705              90.855              
H              12.349              29.353              92.489              
H              14.007              31.71               92.342              
H              12.939              31.416              93.541              
H              15.31               30.08               92.959              
N              11.978              31.72               90.33               
C              11.012              32.59               89.638              
C              9.982               31.755              88.924              
O              8.802               32.04               89.015              
C              11.702              33.504              88.615              
O              12.713              34.253              89.27               
C              10.715              34.466              87.97               
H              12.99               31.686              90.073              
H              10.553              33.155              90.33               
H              12.141              32.923              87.9                
H              9.783               34.106              88.056              
H              10.765              35.359              88.423              
H              10.935              34.578              86.998              
H              13.518              33.676              89.46               
N              10.433              30.699              88.256              
C              9.541               29.796              87.532              
C              8.651               28.969              88.449              
O              7.454               28.803              88.184              
C              10.337              28.861              86.633              
C              11.145              29.495              85.501              
C              11.709              28.395              84.615              
C              10.322              30.452              84.668              
H              11.466              30.571              88.292              
H              8.945               30.353              86.927              
H              10.983              28.355              87.209              
H              9.696               28.216              86.213              
H              11.891              30.023              85.891              
H              10.958              27.857              84.231              
H              12.239              28.803              83.871              
H              12.302              27.799              85.158              
H              9.974               31.192              85.247              
H              10.89               30.843              83.94               
H              9.549               29.965              84.256              
N              9.225               28.466              89.533              
C              8.463               27.719              90.517              
C              7.366               28.577              91.132              
O              6.234               28.106              91.324              
C              9.392               27.195              91.612              
C              8.658               26.435              92.69               
C              9.609               25.65               93.579              
C              8.827               25.054              94.752              
N              9.45                23.812              95.274              
H              10.244              28.65               89.613              
H              8.035               26.923              90.067              
H              10.056              26.588              91.19               
H              9.851               27.974              92.027              
H              8.146               27.082              93.261              
H              8.014               25.795              92.265              
H              10.004              24.912              93.06               
H              10.295              26.258              93.938              
H              8.782               25.739              95.487              
H              7.891               24.853              94.443              
H              9.015               23.017              94.851              
H              10.426              23.812              95.057              
H              9.329               23.77               96.266              
N              7.707               29.829              91.435              
C              6.731               30.804              91.932              
C              5.642               31.005              90.884              
O              4.468               30.807              91.165              
C              7.409               32.14               92.266              
O              6.469               33.194              92.398              
H              8.712               30.053              91.291              
H              6.305               30.425              92.753              
H              7.907               32.039              93.126              
H              8.048               32.365              91.532              
H              6.78                33.985              91.873              
N              6.037               31.351              89.663              
C              5.052               31.59               88.596              
C              4.168               30.354              88.368              
O              2.967               30.476              88.316              
C              5.716               32.038              87.264              
C              6.317               33.447              87.395              
C              4.705               32.03               86.106              
C              7.377               33.732              86.35               
H              7.053               31.435              89.53               
H              4.446               32.315              88.932              
H              6.456               31.404              87.067              
H              5.583               34.11               87.304              
H              6.726               33.526              88.298              
H              5.173               32.278              85.263              
H              4.315               31.118              86.02               
H              3.984               32.689              86.299              
H              6.973               33.654              85.44               
H              7.731               34.656              86.482              
H              8.12                33.072              86.445              
N              4.758               29.18               88.255              
C              3.979               27.96               88.005              
C              3.023               27.632              89.14               
O              1.891               27.235              88.911              
C              4.883               26.769              87.77               
C              4.194               25.473              87.311              
C              3.309               25.68               86.082              
C              5.245               24.398              87.019              
H              5.787               29.184              88.354              
H              3.439               28.099              87.159              
H              5.545               27.01               87.063              
H              5.356               26.56               88.622              
H              3.631               25.121              88.068              
H              3.868               26.016              85.325              
H              2.888               24.811              85.827              
H              2.597               26.348              86.295              
H              5.771               24.217              87.849              
H              4.787               23.561              86.722              
H              5.856               24.721              86.298              
N              3.469               27.822              90.368              
C              2.613               27.589              91.518              
C              1.42                28.5                91.527              
O              0.316               28.063              91.817              
C              3.432               27.796              92.784              
C              2.689               27.691              94.106              
C              1.699               26.542              94.171              
H              4.452               28.142              90.438              
H              2.28                26.633              91.466              
H              4.184               27.115              92.798              
H              3.863               28.715              92.745              
H              3.362               27.572              94.844              
H              2.19                28.55               94.263              
O              0.461               26.737              94.25               
N              2.23                25.333              94.122              
H              1.631               24.5                94.174              
H              3.236               25.232              94.031              
N              1.634               29.768              91.209              
C              0.546               30.731              91.187              
C              -0.456              30.381              90.099              
O              -1.67               30.424              90.311              
C              1.099               32.123              90.961              
C              1.853               32.643              92.163              
C              2.276               34.098              91.962              
H              2.617               30.005              90.984              
H              0.069               30.684              92.072              
H              1.724               32.103              90.185              
H              0.343               32.747              90.772              
H              1.266               32.598              92.963              
H              2.671               32.096              92.299              
O              1.428               34.999              91.863              
N              3.585               34.331              91.862              
H              3.934               35.268              91.714              
H              4.227               33.544              91.938              
N              0.059               30.002              88.94               
C              -0.791              29.573              87.84               
C              -1.62               28.344              88.268              
O              -2.823              28.298              88.031              
C              0.042               29.29               86.549              
C              -0.806              28.62               85.496              
C              0.62                30.594              85.985              
H              1.094               30.037              88.886              
H              -1.434              30.31               87.626              
H              0.765               28.655              86.804              
H              -1.775              28.697              85.739              
H              -0.655              29.059              84.608              
H              -0.562              27.65               85.428              
H              0.052               31.357              86.286              
H              1.552               30.709              86.323              
H              0.623               30.543              84.988              
N              -0.96               27.379              88.9                
C              -1.636              26.166              89.414              
C              -2.678              26.4                90.495              
O              -3.625              25.634              90.56               
C              -0.629              25.146              89.913              
C              0.035               24.4                88.768              
C              1.308               23.723              89.191              
C              1.063               22.34               89.751              
N              2.152               22.043              90.736              
H              0.06                27.539              89.006              
H              -2.085              25.697              88.62               
H              0.074               25.619              90.426              
H              -1.101              24.487              90.483              
H              -0.607              23.709              88.418              
H              0.236               25.053              88.03               
H              1.915               23.641              88.399              
H              1.756               24.275              89.896              
H              0.193               22.321              90.216              
H              1.098               21.676              89.021              
H              3.023               21.985              90.252              
H              2.188               22.775              91.413              
H              1.957               21.174              91.187              
N              -2.505              27.446              91.317              
C              -3.468              27.802              92.381              
C              -4.687              28.605              91.897              
O              -5.662              28.759              92.636              
C              -2.775              28.63               93.473              
O              -1.707              27.905              94.05               
H              -1.632              27.989              91.143              
H              -3.812              26.934              92.786              
H              -2.421              29.464              93.063              
H              -3.442              28.846              94.178              
H              -0.956              27.837              93.394              
N              -4.597              29.143              90.682              
C              -5.648              29.98               90.105              
C              -6.949              29.167              89.911              
O              -6.891              28.003              89.545              
C              -5.126              30.574              88.77               
C              -5.875              31.771              88.301              
H              -3.71               28.916              90.176              
H              -5.848              30.73               90.74               
H              -4.158              30.823              88.893              
H              -5.182              29.858              88.064              
N              -7.026              31.67               87.566              
C              -5.607              33.094              88.399              
C              -7.491              32.873              87.313              
N              -6.645              33.757              87.805              
H              -7.448              30.81               87.268              
H              -4.805              33.505              88.823              
H              -8.338              33.085              86.83               
N              -8.094              29.784              90.193              
H              -7.975              30.751              90.586              
H              -9.01963            29.3677             90.0459             
