255
6.xyz
C              2.676               -10.768             -3.041              
C              1.567               -9.939              -3.597              
O              0.527               -10.496             -4.057              
C              2.566               -10.818             -1.519              
C              3.351               -11.774             -0.689              
C              2.99                -11.68              0.802               
C              3.257               -13.196             -1.264              
H              2.591               -11.718             -3.371              
H              2.776               -9.869              -1.18               
H              1.571               -10.964             -1.303              
H              4.338               -11.588             -0.787              
H              2.021               -11.888             0.917               
H              3.54                -12.337             1.313               
H              3.179               -10.755             1.126               
H              3.62                -13.198             -2.194              
H              3.79                -13.816             -0.692              
H              2.301               -13.482             -1.274              
N              1.708               -8.617              -3.488              
C              0.713               -7.688              -4.058              
C              0.544               -7.876              -5.549              
O              -0.607              -7.958              -6.073              
C              1.028               -6.222              -3.693              
C              0.09                -5.208              -4.383              
C              1.001               -6.025              -2.197              
H              2.552               -8.304              -2.983              
H              -0.173              -7.88               -3.609              
H              1.955               -6.016              -4.018              
H              -0.847              -5.543              -4.325              
H              0.167               -4.329              -3.92               
H              0.36                -5.115              -5.337              
H              1.457               -6.796              -1.748              
H              1.477               -5.176              -1.961              
H              0.051               -5.972              -1.882              
N              1.649               -7.919              -6.305              
C              1.539               -8.033              -7.755              
C              0.999               -9.4                -8.202              
O              0.331               -9.463              -9.199              
C              2.864               -7.68               -8.439              
C              3.295               -6.251              -8.356              
C              4.701               -6.122              -8.94               
C              2.336               -5.333              -9.122              
H              2.536               -7.867              -5.792              
H              0.901               -7.321              -8.088              
H              3.574               -8.246              -8.017              
H              2.773               -7.925              -9.404              
H              3.314               -5.954              -7.405              
H              4.692               -6.418              -9.895              
H              4.995               -5.168              -8.888              
H              5.331               -6.696              -8.418              
H              1.42                -5.413              -8.731              
H              2.653               -4.389              -9.046              
H              2.317               -5.605              -10.083             
N              1.18                -10.433             -7.373              
C              0.676               -11.788             -7.661              
C              -0.88               -11.708             -7.519              
O              -1.573              -12.18              -8.398              
C              1.319               -12.763             -6.714              
C              0.786               -14.131             -6.851              
H              1.708               -10.201             -6.504              
H              0.879               -12.013             -8.595              
H              2.312               -12.788             -6.884              
H              1.169               -12.455             -5.767              
N              -0.231              -14.605             -6.045              
C              1.018               -15.083             -7.762              
C              -0.577              -15.83              -6.445              
N              0.188               -16.16              -7.477              
H              -0.644              -14.111             -5.284              
H              1.67                -15.045             -8.521              
H              -1.283              -16.394             -6.038              
N              -1.359              -10.943             -6.541              
C              -2.821              -10.725             -6.389              
C              -3.37               -9.951              -7.619              
O              -4.465              -10.275             -8.105              
C              -3.152              -9.972              -5.099              
C              -4.598              -9.525              -4.895              
C              -4.792              -8.848              -3.519              
C              -6.093              -8.038              -3.437              
N              -6.078              -7.111              -2.262              
H              -0.659              -10.525             -5.915              
H              -3.275              -11.612             -6.346              
H              -2.898              -10.564             -4.318              
H              -2.564              -9.148              -5.059              
H              -4.843              -8.869              -5.604              
H              -5.199              -10.319             -4.942              
H              -4.816              -9.557              -2.821              
H              -4.026              -8.233              -3.36               
H              -6.192              -7.505              -4.275              
H              -6.86               -8.671              -3.347              
H              -6.106              -7.648              -1.421              
H              -5.243              -6.565              -2.287              
H              -6.875              -6.512              -2.307              
N              -2.656              -8.935              -8.055              
C              -2.969              -8.122              -9.237              
C              -3.046              -8.959              -10.484             
O              -4.016              -8.887              -11.233             
C              -2.044              -6.904              -9.469              
C              -2.272              -6.27               -10.852             
C              -2.075              -5.869              -8.33               
H              -1.795              -8.735              -7.462              
H              -3.871              -7.693              -9.081              
H              -1.102              -7.231              -9.456              
H              -1.99               -6.916              -11.557             
H              -3.24               -6.056              -10.957             
H              -1.731              -5.435              -10.921             
H              -1.654              -6.27               -7.52               
H              -1.566              -5.061              -8.616              
H              -3.024              -5.628              -8.141              
N              -2.077              -9.868              -10.658             
C              -2.066              -10.789             -11.766             
C              -3.299              -11.643             -11.799             
O              -3.904              -11.831             -12.835             
C              -0.846              -11.713             -11.578             
C              -0.609              -12.809             -12.602             
C              -0.05               -12.182             -13.906             
C              0.391               -13.822             -12.092             
H              -1.338              -9.842              -9.917              
H              -2.018              -10.256             -12.629             
H              -0.029              -11.127             -11.566             
H              -0.941              -12.151             -10.679             
H              -1.466              -13.264             -12.812             
H              0.808               -11.722             -13.697             
H              0.102               -12.908             -14.57              
H              -0.714              -11.528             -14.257             
H              0.048               -14.243             -11.249             
H              0.533               -14.536             -12.781             
H              1.265               -13.37              -11.902             
N              -3.604              -12.243             -10.674             
C              -4.777              -13.174             -10.611             
C              -6.073              -12.5               -10.776             
O              -7.011              -13.106             -11.358             
C              -4.737              -14.026             -9.339              
C              -3.527              -14.953             -9.211              
C              -3.697              -15.787             -7.946              
C              -3.239              -15.852             -10.403             
H              -3.011              -12.045             -9.864              
H              -4.641              -13.861             -11.352             
H              -4.724              -13.411             -8.56               
H              -5.55               -14.593             -9.326              
H              -2.705              -14.407             -9.139              
H              -4.537              -16.325             -8.013              
H              -2.914              -16.401             -7.844              
H              -3.751              -15.181             -7.153              
H              -3.07               -15.29              -11.214             
H              -2.432              -16.412             -10.213             
H              -4.025              -16.448             -10.571             
N              -6.191              -11.289             -10.218             
C              -7.462              -10.539             -10.386             
C              -7.711              -10.26              -11.873             
O              -8.848              -10.376             -12.419             
C              -7.419              -9.311              -9.499              
C              -8.757              -8.588              -9.325              
C              -8.586              -7.201              -8.737              
O              -7.521              -6.94               -8.148              
O              -9.493              -6.378              -8.93               
H              -5.389              -10.946             -9.702              
H              -8.215              -11.08              -10.014             
H              -7.122              -9.591              -8.598              
H              -6.789              -8.663              -9.899              
H              -9.166              -8.491              -10.209             
H              -9.307              -9.11               -8.706              
N              -6.637              -9.9                -12.574             
C              -6.704              -9.675              -13.981             
C              -7.058              -10.889             -14.792             
O              -7.954              -10.822             -15.64              
C              -5.377              -9.093              -14.552             
O              -5.019              -7.939              -13.816             
C              -5.557              -8.694              -16.028             
H              -5.769              -9.803              -12.003             
H              -7.412              -8.953              -14.164             
H              -4.648              -9.797              -14.439             
H              -6.2                -9.323              -16.465             
H              -5.914              -7.762              -16.078             
H              -4.674              -8.74               -16.494             
H              -4.7                -8.188              -12.892             
N              -6.401              -12.011             -14.51              
C              -6.722              -13.242             -15.148             
C              -8.191              -13.685             -14.909             
O              -8.821              -14.233             -15.809             
C              -5.706              -14.321             -14.696             
C              -6.012              -15.734             -15.148             
C              -6.036              -15.809             -16.668             
N              -6.324              -17.163             -17.168             
C              -7.556              -17.597             -17.464             
N              -8.623              -16.804             -17.349             
N              -7.733              -18.848             -17.901             
H              -5.65               -11.896             -13.794             
H              -6.594              -13.156             -16.153             
H              -4.81               -14.061             -15.056             
H              -5.678              -14.308             -13.696             
H              -5.308              -16.351             -14.819             
H              -6.905              -16.007             -14.812             
H              -6.74               -15.184             -17                 
H              -5.142              -15.521             -17.007             
H              -5.558              -17.792             -17.293             
H              -8.505              -15.856             -17.054             
H              -9.532              -17.157             -17.558             
H              -6.936              -19.442             -18.021             
H              -8.647              -19.181             -18.105             
N              -8.662              -13.456             -13.696             
C              -10.031             -13.9               -13.269             
C              -11.064             -13.284             -14.199             
O              -12.092             -13.915             -14.515             
C              -10.202             -13.496             -11.786             
C              -11.35              -14.051             -11.004             
C              -11.28              -13.679             -9.512              
N              -10.196             -14.409             -8.862              
C              -9.124              -13.875             -8.268              
N              -8.983              -12.565             -8.07               
N              -8.176              -14.683             -7.784              
H              -8.025              -12.949             -13.054             
H              -10.067             -14.892             -13.343             
H              -9.336              -13.747             -11.309             
H              -10.258             -12.478             -11.761             
H              -12.217             -13.695             -11.358             
H              -11.357             -15.051             -11.059             
H              -11.113             -12.708             -9.452              
H              -12.143             -13.926             -9.101              
H              -10.258             -15.428             -8.858              
H              -9.723              -11.952             -8.362              
H              -8.165              -12.205             -7.642              
H              -8.286              -15.674             -7.852              
H              -7.363              -14.295             -7.355              
N              -10.807             -12.075             -14.635             
C              -11.709             -11.371             -15.57              
C              -11.603             -11.72              -17.042             
O              -12.583             -11.636             -17.799             
C              -11.548             -9.877              -15.355             
C              -12.427             -9.376              -14.209             
O              -13.318             -10.127             -13.752             
O              -12.25              -8.237              -13.759             
H              -9.929              -11.646             -14.28              
H              -12.669             -11.602             -15.271             
H              -10.604             -9.691              -15.127             
H              -11.817             -9.408              -16.182             
N              -10.415             -12.105             -17.444             
C              -10.047             -12.625             -18.771             
C              -9.338              -11.573             -19.616             
O              -8.143              -11.392             -19.455             
C              -11.172             -13.343             -19.535             
C              -11.217             -14.807             -19.114             
C              -11.905             -14.973             -17.764             
C              -11.847             -15.614             -20.237             
O              -9.772              -10.828             -20.481             
H              -9.664              -12.007             -16.675             
H              -9.422              -13.406             -18.641             
H              -12.013             -12.932             -19.285             
H              -10.963             -13.307             -20.479             
H              -10.28              -15.159             -19.052             
H              -12.842             -14.63              -17.823             
H              -11.92              -15.941             -17.514             
H              -11.404             -14.457             -17.069             
H              -11.299             -15.516             -21.069             
H              -11.884             -16.58              -19.976             
H              -12.775             -15.281             -20.41              
H              3.65283             -10.4055            -3.362              
