222
1.xyz
C              -22.546             0.941               -5.902              
O              -22.67              2.16                -5.74               
N              -22.653             0.073               -4.897              
C              -22.873             0.544               -3.533              
C              -21.678             1.338               -3.017              
O              -21.851             2.389               -2.393              
C              -23.162             -0.64               -2.615              
C              -24.467             -1.373              -2.914              
C              -24.559             -2.652              -2.094              
C              -25.68              -0.473              -2.678              
H              -22.57              -0.919              -5.159              
H              -23.681             1.147               -3.528              
H              -22.424             -1.293              -2.716              
H              -23.215             -0.302              -1.686              
H              -24.498             -1.6                -3.887              
H              -24.529             -2.427              -1.12               
H              -25.418             -3.12               -2.301              
H              -23.791             -3.251              -2.321              
H              -25.62              0.326               -3.275              
H              -26.515             -0.983              -2.883              
H              -25.693             -0.178              -1.723              
N              -20.462             0.859               -3.267              
C              -19.291             1.554               -2.745              
C              -19.115             2.926               -3.382              
O              -18.55              3.824               -2.751              
C              -18.033             0.689               -2.856              
C              -18.073             -0.506              -1.921              
C              -16.701             -1.07               -1.581              
H              -20.426             0.004               -3.829              
H              -19.427             1.69                -1.753              
H              -17.956             0.354               -3.789              
H              -17.241             1.244               -2.621              
H              -18.522             -0.231              -1.065              
H              -18.617             -1.234              -2.35               
O              -16.292             -2.083              -2.138              
N              -15.992             -0.423              -0.653              
H              -15.082             -0.751              -0.371              
H              -16.394             0.416               -0.234              
N              -19.588             3.113               -4.617              
C              -19.543             4.438               -5.222              
C              -20.342             5.454               -4.426              
O              -20.082             6.655               -4.535              
C              -20.085             4.377               -6.65               
C              -19.206             3.61                -7.625              
C              -19.808             3.599               -9.028              
N              -20.026             4.949               -9.541              
C              -20.54              5.206               -10.741             
N              -20.711             4.241               -11.638             
N              -20.84              6.459               -11.068             
H              -19.967             2.277               -5.076              
H              -18.579             4.743               -5.262              
H              -20.979             3.934               -6.626              
H              -20.179             5.311               -6.988              
H              -18.31              4.041               -7.677              
H              -19.116             2.666               -7.322              
H              -19.178             3.115               -9.628              
H              -20.679             3.117               -8.983              
H              -19.774             5.724               -8.958              
H              -20.472             3.297               -11.413             
H              -21.082             4.459               -12.542             
H              -20.696             7.196               -10.407             
H              -21.209             6.666               -11.974             
N              -21.317             5.001               -3.64               
C              -22.118             5.903               -2.826              
C              -21.425             6.3                 -1.528              
O              -21.979             7.114               -0.782              
C              -23.466             5.249               -2.51               
C              -24.271             4.857               -3.735              
C              -25.586             4.211               -3.325              
C              -26.389             3.755               -4.533              
N              -26.668             4.891               -5.456              
H              -21.45              3.972               -3.66               
H              -22.307             6.745               -3.361              
H              -23.293             4.427               -1.97               
H              -24.005             5.896               -1.971              
H              -24.467             5.672               -4.274              
H              -23.748             4.206               -4.278              
H              -25.391             3.418               -2.756              
H              -26.127             4.875               -2.817              
H              -25.87              3.053               -5.023              
H              -27.256             3.366               -4.22               
H              -26.706             4.552               -6.395              
H              -27.544             5.307               -5.213              
H              -25.94              5.57                -5.374              
N              -20.235             5.756               -1.257              
C              -19.478             5.992               -0.027              
C              -18.075             6.451               -0.422              
O              -17.085             5.743               -0.201              
C              -19.441             4.709               0.809               
C              -18.542             4.809               2.035               
O              -18.434             5.917               2.62                
O              -17.966             3.752               2.401               
H              -19.878             5.125               -2.025              
H              -19.911             6.752               0.447               
H              -20.369             4.512               1.112               
H              -19.106             3.973               0.229               
N              -17.953             7.64                -1.017              
C              -16.637             8.064               -1.526              
C              -15.576             8.245               -0.449              
O              -14.382             8.129               -0.753              
C              -16.949             9.368               -2.274              
C              -18.221             9.862               -1.658              
C              -19.006             8.625               -1.306              
H              -16.313             7.413               -2.243              
H              -16.208             10.032              -2.148              
H              -17.069             9.193               -3.253              
H              -18.026             10.407              -0.837              
H              -18.728             10.434              -2.31               
H              -19.58              8.774               -0.503              
H              -19.572             8.322               -2.072              
N              -15.96              8.523               0.799               
C              -14.974             8.597               1.872               
C              -14.529             7.232               2.364               
O              -13.561             7.154               3.13                
C              -15.521             9.371               3.069               
C              -15.729             10.824              2.8                 
H              -16.968             8.673               0.928               
H              -14.159             9.09                1.519               
H              -16.403             8.969               3.343               
H              -14.878             9.28                3.838               
N              -14.691             11.732              2.758               
C              -16.858             11.531              2.563               
C              -15.173             12.937              2.508               
N              -16.484             12.839              2.377               
H              -13.726             11.51               2.895               
H              -17.787             11.172              2.53                
H              -14.641             13.774              2.433               
N              -15.22              6.17                1.97                
C              -14.876             4.851               2.457               
C              -15.168             4.645               3.926               
O              -14.51              3.817               4.566               
H              -15.991             6.364               1.313               
H              -15.382             4.149               1.914               
H              -13.884             4.677               2.286               
N              -16.162             5.35                4.477               
C              -16.511             5.123               5.876               
C              -16.93              3.679               6.107               
O              -16.759             3.154               7.214               
C              -17.665             6.031               6.311               
C              -17.37              7.506               6.241               
C              -16.172             8.027               6.714               
C              -18.321             8.383               5.743               
C              -15.927             9.391               6.662               
C              -18.08              9.75                5.69                
C              -16.882             10.252              6.152               
H              -16.625             6.021               3.863               
H              -15.674             5.274               6.415               
H              -18.437             5.846               5.716               
H              -17.887             5.809               7.253               
H              -15.481             7.419               7.093               
H              -19.199             8.026               5.414               
H              -15.046             9.749               7.001               
H              -18.789             10.367              5.313               
H              -16.698             11.236              6.12                
N              -17.529             3.052               5.093               
C              -18.027             1.692               5.188               
C              -17.089             0.676               4.546               
O              -17.46              -0.494              4.401               
C              -19.428             1.61                4.581               
C              -20.451             2.402               5.333               
C              -21.015             1.9                 6.492               
C              -20.829             3.664               4.904               
C              -21.956             2.635               7.198               
C              -21.768             4.399               5.604               
C              -22.333             3.884               6.751               
H              -17.607             3.631               4.223               
H              -18.073             1.46                6.173               
H              -19.379             1.964               3.66                
H              -19.705             0.661               4.589               
H              -20.746             1.002               6.829               
H              -20.415             4.049               4.076               
H              -22.36              2.246               8.037               
H              -22.038             5.318               5.266               
H              -23.015             4.412               7.261               
N              -15.858             1.081               4.219               
C              -14.973             0.207               3.457               
C              -14.368             -0.925              4.281               
O              -14.064             -1.99               3.723               
C              -13.867             1.02                2.791               
H              -15.605             2.024               4.541               
H              -15.504             -0.203              2.69                
H              -13.068             0.438               2.647               
H              -14.192             1.365               1.911               
H              -13.619             1.788               3.38                
N              -14.167             -0.719              5.579               
C              -13.436             -1.65               6.425               
C              -14.146             -1.746              7.766               
O              -14.91              -0.848              8.135               
C              -11.995             -1.163              6.649               
C              -11.223             -0.967              5.376               
C              -10.765             -2.056              4.645               
C              -10.942             0.31                4.912               
C              -10.059             -1.871              3.477               
C              -10.238             0.498               3.74                
C              -9.79               -0.587              3.029               
H              -14.582             0.174               5.94                
H              -13.502             -2.55               5.997               
H              -12.042             -0.296              7.118               
H              -11.53              -1.845              7.19                
H              -10.951             -2.98               4.969               
H              -11.256             1.104               5.437               
H              -9.738              -2.67               2.952               
H              -10.055             1.443               3.412               
H              -9.266              -0.461              2.182               
N              -13.914             -2.818              8.524               
C              -14.538             -2.921              9.85                
C              -14.232             -1.696              10.701              
O              -13.115             -1.178              10.696              
C              -13.913             -4.194              10.435              
C              -13.484             -4.992              9.239               
C              -13.072             -3.986              8.207               
H              -15.533             -3.059              9.764               
H              -13.126             -3.968              11.014              
H              -14.585             -4.7                10.98               
H              -12.718             -5.597              9.481               
H              -14.246             -5.559              8.908               
H              -12.104             -3.75               8.287               
H              -13.26              -4.311              7.279               
N              -15.243             -1.231              11.437              
H              -16.142             -1.728              11.308              
H              -22.3443            0.547336            -6.86801            
H              -15.1181            -0.449              12.0684             
