291
2.xyz
C              -13.377             -1.448              6.42                
C              -14.072             -1.551              7.766               
O              -14.859             -0.67               8.133               
C              -11.936             -0.966              6.639               
C              -11.155             -0.794              5.358               
C              -10.658             -1.893              4.678               
C              -10.926             0.468               4.839               
C              -9.957              -1.734              3.495               
C              -10.236             0.635               3.657               
C              -9.733              -0.469              2.986               
H              -13.446             -2.348              5.988               
H              -11.976             -0.09               7.091               
H              -11.472             -1.641              7.19                
H              -10.805             -2.81               5.04                
H              -11.269             1.273               5.332               
H              -9.611              -2.549              3.01                
H              -10.096             1.567               3.281               
H              -9.214              -0.353              2.142               
N              -13.811             -2.615              8.522               
C              -14.408             -2.724              9.861               
C              -14.119             -1.495              10.715              
O              -13.005             -0.962              10.727              
C              -13.764             -3.992              10.432              
C              -13.374             -4.785              9.249               
C              -12.972             -3.782              8.203               
H              -15.403             -2.887              9.793               
H              -12.964             -3.754              10.995              
H              -14.422             -4.489              11.008              
H              -12.605             -5.4                9.465               
H              -14.144             -5.348              8.923               
H              -12.003             -3.548              8.273               
H              -13.169             -4.115              7.281               
N              -15.151             -1.032              11.427              
C              -14.997             0.121               12.307              
C              -14.187             -0.284              13.532              
O              -14.477             -1.299              14.18               
C              -16.371             0.67                12.722              
C              -16.203             1.922               13.596              
C              -17.251             0.954               11.5                
H              -16.036             -1.548              11.301              
H              -14.484             0.825               11.815              
H              -16.817             -0.014              13.288              
H              -15.495             1.752               14.278              
H              -15.938             2.691               13.018              
H              -17.069             2.123               14.05               
H              -18.191             0.69                11.708              
H              -17.209             1.929               11.289              
H              -16.912             0.423               10.725              
N              -13.169             0.503               13.861              
C              -12.363             0.236               15.048              
C              -12.881             1.01                16.252              
O              -13.435             2.106               16.126              
C              -10.897             0.607               14.828              
O              -10.789             2.027               14.672              
C              -10.358             -0.08               13.591              
H              -13.002             1.298               13.221              
H              -12.418             -0.749              15.256              
H              -10.357             0.338               15.651              
H              -10.679             0.394               12.767              
H              -9.354              -0.07               13.602              
H              -10.673             -1.033              13.562              
H              -11.347             2.337               13.895              
N              -12.656             0.44                17.438              
C              -13.015             1.155               18.657              
C              -12.212             2.441               18.801              
O              -12.689             3.403               19.41               
C              -12.844             0.266               19.889              
C              -13.881             -0.845              19.963              
O              -14.809             -0.867              19.132              
O              -13.773             -1.696              20.87               
H              -12.233             -0.49               17.412              
H              -13.984             1.42                18.573              
H              -11.941             -0.146              19.85               
H              -12.932             0.837               20.697              
N              -11.002             2.487               18.237              
C              -10.204             3.708               18.305              
C              -10.885             4.852               17.565              
O              -10.91              5.991               18.041              
C              -8.811              3.45                17.732              
H              -10.699             1.623               17.772              
H              -10.095             3.97                19.272              
H              -8.214              4.219               17.953              
H              -8.439              2.613               18.13               
H              -8.874              3.35                16.74               
N              -11.437             4.568               16.386              
C              -12.139             5.606               15.64               
C              -13.516             5.888               16.236              
O              -14.01              7.019               16.157              
C              -12.22              5.223               14.154              
C              -10.844             5.362               13.496              
C              -13.278             6.057               13.446              
C              -10.66              4.49                12.269              
H              -11.328             3.599               16.067              
H              -11.601             6.449               15.752              
H              -12.493             4.27                14.096              
H              -10.713             6.317               13.237              
H              -10.149             5.115               14.17               
H              -13.356             5.76                12.496              
H              -14.157             5.939               13.904              
H              -13.016             7.02                13.473              
H              -11.344             4.736               11.584              
H              -9.745              4.634               11.897              
H              -10.772             3.532               12.526              
N              -14.155             4.879               16.826              
C              -15.524             4.992               17.324              
C              -15.563             4.364               18.709              
O              -15.852             3.172               18.853              
C              -16.508             4.289               16.385              
H              -13.593             4                   16.902              
H              -15.762             5.954               17.4                
H              -17.44              4.454               16.701              
H              -16.397             4.65                15.461              
H              -16.322             3.308               16.387              
N              -15.266             5.145               19.751              
C              -15.14              4.564               21.096              
C              -16.378             3.779               21.5                
O              -17.51              4.228               21.32               
C              -14.943             5.792               21.991              
C              -14.353             6.828               21.09               
C              -14.985             6.59                19.741              
H              -14.312             3.985               21.154              
H              -15.822             6.1                 22.366              
H              -14.323             5.58                22.75               
H              -14.566             7.75                21.425              
H              -13.355             6.725               21.039              
H              -15.83              7.112               19.638              
H              -14.357             6.822               18.998              
N              -16.143             2.591               22.055              
C              -17.205             1.72                22.504              
C              -17.926             0.961               21.416              
O              -18.902             0.263               21.72               
H              -15.128             2.351               22.134              
H              -16.823             1.048               23.183              
H              -17.891             2.273               23.036              
N              -17.468             1.055               20.164              
C              -18.188             0.447               19.048              
C              -18.468             -1.032              19.29               
O              -19.613             -1.487              19.187              
C              -17.403             0.625               17.745              
C              -18.258             0.387               16.527              
C              -19.059             1.398               16.018              
C              -18.285             -0.853              15.894              
C              -19.862             1.192               14.905              
C              -19.08              -1.068              14.778              
C              -19.873             -0.038              14.287              
O              -20.68              -0.231              13.176              
H              -16.585             1.581               20.061              
H              -19.075             0.922               18.948              
H              -17.06              1.554               17.713              
H              -16.659             -0.029              17.739              
H              -19.061             2.299               16.462              
H              -17.723             -1.597              16.249              
H              -20.431             1.941               14.554              
H              -19.085             -1.96               14.327              
H              -20.957             -1.188              13.141              
N              -17.424             -1.806              19.581              
C              -17.595             -3.247              19.695              
C              -18.468             -3.634              20.879              
O              -18.953             -4.769              20.933              
C              -16.233             -3.934              19.767              
O              -15.512             -3.513              20.912              
H              -16.531             -1.315              19.711              
H              -18.051             -3.576              18.853              
H              -16.371             -4.919              19.815              
H              -15.711             -3.7                18.952              
H              -14.854             -2.808              20.651              
N              -18.682             -2.723              21.825              
C              -19.583             -2.995              22.935              
C              -21.028             -2.651              22.611              
O              -21.934             -3.09               23.328              
C              -19.136             -2.215              24.172              
C              -17.729             -2.539              24.599              
S              -17.143             -1.401              25.857              
C              -18.417             -1.587              27.108              
H              -18.167             -1.835              21.704              
H              -19.537             -3.986              23.142              
H              -19.197             -1.23               23.973              
H              -19.763             -2.426              24.931              
H              -17.701             -3.503              24.941              
H              -17.119             -2.516              23.778              
H              -18.151             -1.087              27.932              
H              -19.281             -1.222              26.761              
H              -18.53              -2.556              27.328              
N              -21.258             -1.887              21.548              
C              -22.593             -1.462              21.159              
C              -23.117             -2.262              19.974              
O              -24.309             -2.563              19.907              
C              -22.588             0.052               20.856              
C              -22.253             0.85                22.118              
C              -23.915             0.487               20.252              
C              -21.891             2.297               21.835              
H              -20.396             -1.619              21.018              
H              -23.197             -1.674              21.938              
H              -21.878             0.226               20.183              
H              -23.041             0.827               22.726              
H              -21.481             0.411               22.57               
H              -23.87              1.455               20.009              
H              -24.102             -0.053              19.433              
H              -24.647             0.345               20.917              
H              -22.661             2.747               21.388              
H              -21.685             2.759               22.696              
H              -21.092             2.325               21.238              
N              -22.239             -2.613              19.039              
C              -22.617             -3.266              17.792              
C              -22.231             -4.736              17.897              
O              -21.043             -5.076              17.879              
C              -21.943             -2.584              16.593              
C              -22.42              -1.137              16.482              
C              -22.24              -3.333              15.307              
C              -23.929             -1.012              16.343              
H              -21.244             -2.378              19.278              
H              -23.61              -3.235              17.747              
H              -20.964             -2.574              16.755              
H              -22.13              -0.643              17.296              
H              -21.993             -0.725              15.681              
H              -21.768             -2.892              14.545              
H              -21.925             -4.278              15.388              
H              -23.224             -3.327              15.134              
H              -24.366             -1.415              17.144              
H              -24.173             -0.047              16.276              
H              -24.223             -1.493              15.52               
N              -23.228             -5.62               18.007              
C              -22.936             -7.035              18.219              
C              -22.529             -7.755              16.938              
O              -21.814             -8.76               17.002              
C              -24.136             -7.734              18.86               
C              -24.545             -7.185              20.22               
C              -25.737             -7.927              20.792              
C              -26.161             -7.398              22.143              
N              -27.329             -8.153              22.661              
H              -24.175             -5.229              17.932              
H              -22.177             -7.114              18.888              
H              -24.917             -7.646              18.24               
H              -23.91              -8.704              18.969              
H              -23.772             -7.275              20.852              
H              -24.779             -6.216              20.123              
H              -26.506             -7.837              20.157              
H              -25.499             -8.895              20.888              
H              -25.398             -7.489              22.785              
H              -26.406             -6.431              22.055              
H              -28.111             -7.536              22.75               
H              -27.557             -8.891              22.027              
H              -27.105             -8.539              23.556              
N              -22.98              -7.287              15.779              
C              -22.723             -7.955              14.503              
C              -22.188             -6.935              13.504              
O              -22.926             -6.456              12.635              
C              -23.983             -8.648              13.98               
C              -24.439             -9.785              14.84               
H              -23.533             -6.403              15.855              
H              -22.023             -8.654              14.646              
H              -24.727             -7.975              13.924              
H              -23.801             -9.003              13.057              
N              -25.58              -9.727              15.613              
C              -23.9               -11.009             15.059              
C              -25.727             -10.866             16.265              
N              -24.719             -11.66              15.95               
H              -26.198             -8.943              15.668              
H              -23.066             -11.37              14.652              
H              -26.47              -11.089             16.889              
N              -20.905             -6.587              13.607              
C              -20.329             -5.604              12.679              
C              -20.319             -6.102              11.241              
O              -20.257             -7.303              10.967              
C              -18.899             -5.42               13.204              
C              -18.62              -6.658              14.013              
C              -19.928             -7.059              14.602              
H              -20.82              -4.721              12.75               
H              -18.25              -5.34               12.443              
H              -18.834             -4.6                13.776              
H              -18.247             -7.381              13.419              
H              -17.941             -6.455              14.729              
H              -19.998             -8.052              14.714              
H              -20.09              -6.616              15.487              
N              -20.401             -5.153              10.31               
C              -20.372             -5.486              8.899               
C              -21.768             -5.897              8.406               
C              -21.813             -6.411              6.961               
S              -20.601             -7.721              6.589               
C              -21.113             -9.021              7.71                
H              -20.484             -4.189              10.677              
H              -19.73              -6.233              8.762               
H              -22.127             -6.623              9.009               
H              -22.386             -5.102              8.475               
H              -22.77              -6.741              6.767               
H              -21.679             -5.608              6.329               
H              -22.113             -9.069              7.735               
H              -20.747             -9.898              7.396               
H              -20.767             -8.827              8.629               
H              -13.9069            -0.767422           5.80857             
H              -19.9943            -4.61205            8.36041             
