207
1.xyz
C              9.156               -2.32               31.129              
O              8.294               -1.725              30.477              
N              10.463              -2.159              30.912              
C              10.894              -1.31               29.805              
C              10.369              -1.826              28.472              
O              10.1                -1.033              27.565              
C              12.419              -1.185              29.768              
C              13.101              -2.498              29.478              
H              11.088              -2.65               31.547              
H              10.485              -0.4                29.952              
H              12.661              -0.532              29.055              
H              12.726              -0.851              30.656              
O              12.745              -3.533              30.044              
N              14.083              -2.47               28.579              
H              14.334              -1.605              28.143              
H              14.568              -3.31               28.341              
N              10.203              -3.144              28.331              
C              9.655               -3.671              27.086              
C              8.194               -3.28               26.915              
O              7.762               -2.929              25.812              
C              9.791               -5.188              27.056              
C              11.218              -5.684              27.078              
C              11.274              -7.183              26.934              
H              10.48               -3.715              29.132              
H              10.174              -3.266              26.322              
H              9.314               -5.57               27.853              
H              9.351               -5.534              26.221              
H              11.715              -5.271              26.321              
H              11.635              -5.428              27.945              
O              10.445              -7.897              27.504              
N              12.235              -7.673              26.155              
H              12.343              -8.675              26.021              
H              12.867              -7.022              25.689              
N              7.411               -3.352              27.99               
C              6.02                -2.924              27.901              
C              5.925               -1.428              27.647              
O              5.043               -0.976              26.912              
C              5.257               -3.332              29.161              
C              4.97                -4.835              29.245              
C              4.651               -5.254              30.665              
C              3.829               -5.229              28.319              
H              7.853               -3.716              28.839              
H              5.585               -3.407              27.131              
H              5.806               -3.092              29.944              
H              4.391               -2.864              29.161              
H              5.776               -5.335              28.92               
H              3.844               -4.758              30.99               
H              4.468               -6.238              30.694              
H              5.428               -5.046              31.262              
H              4.071               -5.003              27.375              
H              3.662               -6.213              28.393              
H              3                   -4.731              28.578              
N              6.841               -0.645              28.222              
C              6.871               0.783               27.918              
C              7.147               1.023               26.438              
O              6.507               1.875               25.809              
C              7.913               1.481               28.794              
C              7.478               1.603               30.248              
C              8.592               2.063               31.165              
O              8.354               2.749               32.157              
N              9.821               1.687               30.833              
H              7.487               -1.115              28.863              
H              5.963               1.164               28.127              
H              8.76                0.957               28.766              
H              8.069               2.4                 28.438              
H              6.726               2.263               30.302              
H              7.154               0.708               30.56               
H              10.624              1.969               31.393              
H              9.952               1.107               30.005              
N              8.087               0.268               25.865              
C              8.363               0.347               24.433              
C              7.136               -0.033              23.612              
O              6.828               0.605               22.596              
C              9.532               -0.585              24.112              
C              9.939               -0.623              22.653              
C              9.349               -1.524              21.775              
C              10.936              0.215               22.162              
C              9.723               -1.579              20.449              
C              11.313              0.171               20.832              
C              10.702              -0.729              19.981              
O              11.074              -0.789              18.656              
H              8.592               -0.365              26.513              
H              8.606               1.3                 24.21               
H              10.325              -0.29               24.648              
H              9.277               -1.514              24.386              
H              8.637               -2.147              22.114              
H              11.384              0.858               22.781              
H              9.284               -2.234              19.827              
H              12.023              0.786               20.488              
H              10.63               -1.573              18.227              
N              6.415               -1.07               24.036              
C              5.239               -1.492              23.289              
C              4.18                -0.401              23.249              
O              3.484               -0.257              22.242              
C              4.675               -2.788              23.876              
C              5.385               -4.063              23.419              
C              5.153               -5.201              24.395              
C              4.896               -4.456              22.026              
H              6.75                -1.521              24.895              
H              5.518               -1.7                22.341              
H              4.759               -2.738              24.862              
H              3.727               -2.86               23.602              
H              6.368               -3.879              23.348              
H              4.172               -5.391              24.464              
H              5.627               -6.022              24.074              
H              5.505               -4.948              25.297              
H              5.096               -3.717              21.383              
H              5.364               -5.29               21.733              
H              3.91                -4.618              22.054              
N              4.041               0.373               24.327              
C              3.058               1.453               24.345              
C              3.563               2.69                23.616              
O              2.84                3.267               22.799              
C              2.689               1.81                25.786              
C              1.668               2.94                25.958              
C              0.363               2.647               25.223              
C              1.406               3.252               27.439              
H              4.666               0.148               25.114              
H              2.22                1.13                23.883              
H              2.305               0.997               26.214              
H              3.52                2.088               26.256              
H              2.064               3.792               25.602              
H              -0.039              1.805               25.582              
H              -0.273              3.406               25.36               
H              0.549               2.539               24.247              
H              2.262               3.531               27.871              
H              0.738               3.991               27.505              
H              1.051               2.434               27.888              
N              4.797               3.117               23.921              
C              5.333               4.382               23.435              
C              5.718               4.327               21.961              
O              5.576               5.329               21.251              
C              6.55                4.769               24.28               
C              7.191               6.098               23.901              
C              8.478               6.352               24.685              
N              9.623               5.631               24.128              
C              10.146              4.524               24.649              
N              9.635               4                   25.755              
N              11.186              3.941               24.066              
H              5.333               2.464               24.534              
H              4.629               5.102               23.556              
H              6.262               4.827               25.234              
H              7.239               4.055               24.179              
H              7.417               6.094               22.93               
H              6.558               6.842               24.1                
H              8.662               7.332               24.663              
H              8.327               6.056               25.625              
H              10.046              6                   23.289              
H              8.844               4.41                26.202              
H              10.051              3.172               26.151              
H              11.561              4.33                23.22               
H              11.592              3.122               24.463              
N              6.209               3.183               21.486              
C              6.733               3.044               20.131              
C              5.806               2.206               19.247              
O              5.367               2.659               18.191              
C              8.172               2.486               20.139              
C              8.667               2.3                 18.71               
C              9.09                3.422               20.92               
H              6.186               2.391               22.171              
H              6.798               3.965               19.723              
H              8.144               1.586               20.557              
H              9.382               1.601               18.693              
H              7.906               2.013               18.129              
H              9.038               3.164               18.371              
H              8.944               3.283               21.899              
H              10.04               3.218               20.688              
H              8.878               4.368               20.677              
N              5.492               0.984               19.675              
C              4.769               0.062               18.798              
C              3.312               0.486               18.645              
O              2.825               0.718               17.531              
C              4.894               -1.382              19.308              
C              4.131               -2.33               18.396              
C              6.361               -1.775              19.411              
H              5.789               0.757               20.631              
H              5.199               0.094               17.889              
H              4.461               -1.427              20.202              
H              3.998               -3.206              18.86               
H              3.24                -1.934              18.172              
H              4.651               -2.476              17.554              
H              6.564               -2.473              18.725              
H              6.93                -0.969              19.25               
H              6.542               -2.138              20.325              
N              2.586               0.557               19.76               
C              1.17                0.907               19.705              
C              0.975               2.28                19.08               
O              0.132               2.453               18.193              
C              0.559               0.825               21.111              
C              -0.949              1.021               21.328              
C              -1.383              2.478               21.201              
C              -1.745              0.16                20.372              
H              3.095               0.35                20.632              
H              0.694               0.227               19.136              
H              0.793               -0.089              21.49               
H              1.031               1.515               21.687              
H              -1.189              0.682               22.247              
H              -1.161              2.813               20.285              
H              -2.369              2.545               21.351              
H              -0.903              3.029               21.883              
H              -1.523              -0.806              20.52               
H              -2.725              0.299               20.526              
H              -1.522              0.408               19.427              
N              1.776               3.262               19.505              
H              2.468               2.988               20.216              
H              1.68233             4.19943             19.1331             
H              8.88588             -2.98867            31.908              
