268
5.xyz
C              9.699               30.862              13.014              
C              10.779              29.818              13.311              
O              10.651              29.089              14.302              
C              8.701               30.281              12.011              
C              7.294               30.807              12.176              
O              6.984               31.435              13.18               
O              6.472               30.503              11.282              
H              9.236               31.061              13.891              
H              9.024               30.507              11.093              
H              8.691               29.29               12.129              
N              11.831              29.756              12.491              
C              12.92               28.84               12.797              
C              13.546              29.2                14.153              
O              13.791              28.326              15.013              
C              13.954              28.809              11.656              
C              15.13               27.923              12.058              
C              13.323              28.297              10.359              
H              11.8                30.375              11.679              
H              12.545              27.913              12.872              
H              14.309              29.727              11.544              
H              14.827              26.972              12.108              
H              15.857              28.007              11.377              
H              15.473              28.212              12.951              
H              12.63               27.614              10.582              
H              12.902              29.063              9.877               
H              14.034              27.887              9.791               
N              13.803              30.479              14.357              
C              14.382              30.923              15.62               
C              13.408              30.745              16.8                
O              13.882              30.502              17.93               
C              14.874              32.343              15.502              
C              16.263              32.322              14.958              
C              16.669              32.314              13.672              
C              17.457              32.203              15.755              
N              18.043              32.247              13.616              
C              18.552              32.159              14.882              
C              17.685              32.178              17.124              
C              19.899              32.097              15.357              
C              19.035              32.083              17.608              
C              20.096              32.047              16.719              
H              13.569              31.113              13.578              
H              15.188              30.347              15.812              
H              14.317              32.832              14.867              
H              14.911              32.753              16.387              
H              16.073              32.351              12.871              
H              18.588              32.261              12.773              
H              16.947              32.224              17.788              
H              20.651              32.091              14.7                
H              19.17               32.045              18.583              
H              21.032              31.983              17.076              
N              12.102              30.858              16.58               
C              11.128              30.591              17.622              
C              11.248              29.136              18.061              
O              11.265              28.84               19.27               
C              9.719               30.892              17.086              
C              8.553               30.518              17.971              
C              8.591               31.205              19.325              
C              7.25                30.807              17.26               
H              11.848              31.149              15.615              
H              11.326              31.175              18.41               
H              9.671               31.878              16.915              
H              9.619               30.4                16.221              
H              8.551               29.515              18.111              
H              8.569               32.198              19.199              
H              7.799               30.922              19.867              
H              9.43                30.951              19.807              
H              7.201               30.275              16.412              
H              6.479               30.558              17.85               
H              7.193               31.783              17.039              
N              11.343              28.21               17.105              
C              11.559              26.818              17.391              
C              12.804              26.613              18.246              
O              12.774              25.909              19.259              
C              11.645              26.047              16.086              
C              11.912              24.576              16.23               
S              12.055              23.713              14.661              
C              13.742              24.147              14.26               
H              11.245              28.595              16.134              
H              10.768              26.468              17.914              
H              10.774              26.169              15.576              
H              12.38               26.455              15.514              
H              12.769              24.449              16.792              
H              11.163              24.158              16.806              
H              13.751              24.95               13.662              
H              14.246              24.356              15.1                
H              14.185              23.381              13.791              
N              13.905              27.257              17.864              
C              15.149              27.123              18.641              
C              14.999              27.691              20.05               
O              15.402              27.058              21.042              
C              16.325              27.833              17.956              
C              16.712              27.299              16.598              
C              16.504              25.979              16.219              
C              17.384              28.159              15.726              
C              16.91               25.549              14.963              
C              17.821              27.714              14.474              
C              17.591              26.413              14.12               
H              13.818              27.83               17.019              
H              15.322              26.136              18.74               
H              16.077              28.791              17.847              
H              17.117              27.749              18.553              
H              16.067              25.344              16.839              
H              17.554              29.104              15.999              
H              16.707              24.606              14.672              
H              18.296              28.354              13.859              
H              17.919              26.064              13.228              
N              14.461              28.902              20.135              
C              14.333              29.573              21.434              
C              13.401              28.81               22.354              
O              13.685              28.736              23.554              
C              13.902              31.013              21.246              
C              15.037              31.902              20.808              
H              14.152              29.316              19.245              
H              15.246              29.565              21.858              
H              13.187              31.044              20.551              
H              13.546              31.355              22.114              
O              16.167              31.723              21.222              
N              14.703              32.92               20.026              
H              13.751              33.07               19.764              
H              15.412              33.549              19.693              
N              12.328              28.246              21.832              
C              11.463              27.413              22.675              
C              12.246              26.262              23.285              
O              12.105              25.936              24.466              
C              10.308              26.851              21.846              
C              9.279               27.891              21.456              
H              12.156              28.428              20.839              
H              11.146              27.993              23.433              
H              10.686              26.449              21.012              
H              9.854               26.138              22.383              
O              9.218               28.979              22.02               
N              8.437               27.534              20.507              
H              8.487               26.627              20.088              
H              7.729               28.178              20.194              
N              13.088              25.622              22.464              
C              13.801              24.444              22.931              
C              14.853              24.821              23.968              
O              15.02               24.12               24.963              
C              14.385              23.69               21.752              
H              13.176              26.023              21.524              
H              13.143              23.812              23.358              
H              14.1                22.732              21.79               
H              14.061              24.097              20.897              
H              15.384              23.738              21.782              
N              15.576              25.904              23.732              
C              16.536              26.373              24.728              
C              15.862              26.868              25.997              
O              16.472              26.763              27.077              
C              17.435              27.451              24.159              
C              18.437              27.039              23.14               
C              19.264              25.945              23.156              
C              18.803              27.794              21.97               
N              20.104              25.965              22.056              
C              19.857              27.103              21.335              
C              18.354              28.993              21.41               
C              20.436              27.567              20.161              
C              18.93               29.455              20.278              
C              19.949              28.745              19.648              
H              15.412              26.366              22.829              
H              17.123              25.587              24.979              
H              16.858              28.165              23.733              
H              17.947              27.883              24.918              
H              19.264              25.236              23.856              
H              20.776              25.265              21.83               
H              17.605              29.502              21.853              
H              21.175              27.058              19.718              
H              18.624              30.323              19.88               
H              20.336              29.107              18.795              
N              14.66               27.406              25.918              
C              13.932              27.905              27.091              
C              13.456              26.749              27.955              
O              13.565              26.835              29.197              
C              12.711              28.699              26.623              
C              11.763              29.205              27.701              
C              12.424              30.169              28.68               
C              10.55               29.834              27.082              
H              14.263              27.45               24.951              
H              14.557              28.475              27.632              
H              13.043              29.496              26.117              
H              12.183              28.112              26.01               
H              11.398              28.414              28.215              
H              12.768              30.965              28.182              
H              11.753              30.464              29.36               
H              13.184              29.709              29.139              
H              10.063              29.162              26.517              
H              9.929               30.166              27.798              
H              10.82               30.609              26.503              
N              12.888              25.701              27.362              
C              12.222              24.661              28.121              
C              13.189              23.605              28.641              
O              12.994              23.068              29.73               
C              11.131              23.993              27.272              
C              10.364              22.996              28.087              
C              9.399               23.438              28.996              
C              10.656              21.638              28.06               
C              8.699               22.554              29.796              
C              9.999               20.759              28.906              
C              9.027               21.213              29.778              
O              8.393               20.282              30.594              
H              12.965              25.698              26.324              
H              11.769              25.089              28.922              
H              10.514              24.693              26.96               
H              11.568              23.525              26.525              
H              9.212               24.423              29.068              
H              11.342              21.293              27.427              
H              7.957               22.884              30.384              
H              10.232              19.779              28.886              
H              7.681               20.745              31.114              
N              14.179              23.22               27.834              
C              14.968              22.024              28.074              
C              16.223              22.347              28.845              
O              16.775              23.425              28.731              
C              15.304              21.37               26.735              
C              14.072              20.87               26.049              
H              14.334              23.855              27.017              
H              14.411              21.411              28.651              
H              15.746              22.049              26.16               
H              15.915              20.606              26.908              
O              13.56               19.786              26.357              
N              13.536              21.645              25.135              
H              13.959              22.532              24.918              
H              12.708              21.364              24.648              
N              16.659              21.397              29.665              
C              17.899              21.514              30.431              
C              19.129              21.495              29.532              
O              19.141              20.859              28.492              
C              17.986              20.393              31.476              
C              16.853              20.394              32.501              
C              17.095              21.457              33.567              
N              15.896              22.027              34.21               
C              15.083              22.955              33.671              
N              15.279              23.432              32.436              
N              14.035              23.401              34.369              
H              16.039              20.555              29.717              
H              17.884              22.388              30.939              
H              17.966              19.52               30.998              
H              18.846              20.493              31.969              
H              15.996              20.599              32.046              
H              16.812              19.51               32.948              
H              17.682              21.049              34.285              
H              17.62               22.211              33.139              
H              15.663              21.693              35.136              
H              16.037              23.077              31.89               
H              14.673              24.131              32.07               
H              13.855              23.025              35.279              
H              13.44               24.1                33.985              
N              20.198              22.152              29.979              
C              21.411              22.263              29.145              
C              22.429              23.144              29.826              
C              22.002              24.598              29.882              
C              23.092              25.498              30.454              
C              23.394              25.234              31.917              
N              22.279              25.598              32.831              
H              20.113              22.56               30.917              
H              21.143              22.718              28.265              
H              22.558              22.822              30.759              
H              23.286              23.09               29.322              
H              21.781              24.912              28.955              
H              21.184              24.68               30.457              
H              23.933              25.357              29.924              
H              22.802              26.454              30.355              
H              23.607              24.252              32.034              
H              24.219              25.759              32.18               
H              22.433              25.179              33.726              
H              22.241              26.592              32.929              
H              21.416              25.267              32.45               
H              10.1073             31.777              12.6588             
H              21.9079             21.3309             28.9231             
