294
0.xyz
N              10.096              50.115              -3.564              
C              9.322               50.369              -2.305              
C              9.283               49.091              -1.431              
O              10.347              48.53               -1.156              
C              7.935               50.945              -2.653              
C              7.116               50.124              -3.639              
C              5.711               50.691              -3.774              
N              4.92                49.913              -4.714              
C              3.657               50.212              -5.003              
N              2.971               51.112              -4.314              
N              3.045               49.545              -5.986              
H              9.456               49.961              -4.31               
H              9.783               51.092              -1.795              
H              7.413               51.022              -1.803              
H              8.07                51.855              -3.044              
H              7.549               50.149              -4.532              
H              7.043               49.189              -3.312              
H              5.282               50.666              -2.878              
H              5.788               51.627              -4.098              
H              5.339               49.128              -5.159              
H              3.414               51.604              -3.562              
H              2.018               51.302              -4.543              
H              3.54                48.851              -6.504              
H              2.09                49.746              -6.201              
H              10.663              50.909              -3.76               
H              10.668              49.311              -3.434              
N              8.108               48.645              -0.97               
C              7.975               47.337              -0.311              
C              8.089               46.229              -1.351              
O              7.391               46.254              -2.371              
C              6.633               47.209              0.419               
C              6.413               48.252              1.508               
C              5.067               48.067              2.191               
C              4.824               49.091              3.277               
N              3.501               48.873              3.915               
H              7.311               49.292              -1.116              
H              8.715               47.236              0.354               
H              5.902               47.301              -0.255              
H              6.593               46.304              0.838               
H              7.138               48.166              2.192               
H              6.447               49.163              1.098               
H              4.345               48.151              1.504               
H              5.036               47.154              2.598               
H              5.54                49.011              3.97                
H              4.849               50.007              2.877               
H              3.63                48.629              4.876               
H              2.959               49.711              3.853               
H              3.022               48.131              3.444               
N              8.97                45.269              -1.084              
C              9.221               44.157              -1.992              
C              8.155               43.094              -1.789              
O              7.885               42.701              -0.659              
C              10.603              43.559              -1.726              
C              11.069              42.594              -2.797              
C              12.559              42.338              -2.677              
C              13.013              41.301              -3.689              
N              14.499              41.191              -3.716              
H              9.465               45.381              -0.17               
H              9.172               44.489              -2.935              
H              11.26               44.308              -1.668              
H              10.568              43.073              -0.855              
H              10.582              41.729              -2.693              
H              10.878              42.983              -3.696              
H              13.047              43.185              -2.85               
H              12.757              41.999              -1.765              
H              12.623              40.413              -3.444              
H              12.687              41.566              -4.597              
H              14.759              40.226              -3.699              
H              14.847              41.618              -4.55               
H              14.879              41.655              -2.917              
N              7.558               42.656              -2.888              
C              6.518               41.637              -2.87               
C              7.207               40.307              -3.151              
O              8.019               40.211              -4.078              
C              5.449               41.896              -3.965              
C              4.936               43.354              -3.955              
C              4.286               40.92               -3.828              
C              4.083               43.735              -2.762              
H              7.898               43.105              -3.771              
H              6.184               41.592              -1.939              
H              5.875               41.729              -4.853              
H              5.734               43.962              -3.995              
H              4.401               43.495              -4.794              
H              3.654               41.047              -4.59               
H              4.634               39.985              -3.836              
H              3.809               41.09               -2.968              
H              4.614               43.615              -1.925              
H              3.803               44.69               -2.848              
H              3.275               43.149              -2.734              
N              6.894               39.288              -2.349              
C              7.409               37.932              -2.556              
C              6.264               36.986              -2.876              
O              5.325               36.848              -2.07               
C              8.124               37.427              -1.315              
C              9.295               38.265              -0.911              
C              9.143               39.329              -0.044              
C              10.561              37.976              -1.407              
C              10.23               40.1                0.305               
C              11.653              38.728              -1.053              
C              11.487              39.792              -0.188              
H              6.253               39.538              -1.564              
H              7.997               37.966              -3.367              
H              7.475               37.426              -0.567              
H              8.452               36.512              -1.503              
H              8.247               39.541              0.333               
H              10.671              37.199              -2.036              
H              10.106              40.891              0.921               
H              12.568              38.505              -1.423              
H              12.277              40.346              0.088               
N              6.377               36.27               -3.991              
C              5.404               35.26               -4.359              
C              5.661               33.989              -3.544              
O              6.818               33.622              -3.279              
C              5.459               34.963              -5.852              
C              5.081               36.161              -6.715              
C              5.199               35.866              -8.203              
C              4.821               37.056              -9.084              
N              4.953               36.716              -10.528             
H              7.216               36.498              -4.567              
H              4.484               35.592              -4.147              
H              6.387               34.692              -6.086              
H              4.823               34.224              -6.05               
H              4.133               36.422              -6.511              
H              5.685               36.93               -6.488              
H              6.145               35.612              -8.408              
H              4.594               35.102              -8.431              
H              3.875               37.313              -8.89               
H              5.426               37.822              -8.868              
H              4.049               36.517              -10.905             
H              5.357               37.49               -11.015             
H              5.541               35.914              -10.627             
N              4.581               33.331              -3.133              
C              4.787               32.16               -2.272              
C              5.663               31.044              -2.921              
O              6.423               30.389              -2.215              
C              3.36                31.678              -1.975              
C              2.489               32.357              -2.962              
C              3.157               33.645              -3.333              
H              5.189               32.433              -1.38               
H              3.304               30.674              -2.067              
H              3.099               31.918              -1.03               
H              2.356               31.773              -3.782              
H              1.57                32.53               -2.567              
H              2.983               33.89               -4.284              
H              2.876               34.393              -2.734              
N              5.583               30.864              -4.241              
C              6.425               29.861              -4.916              
C              7.909               30.212              -4.931              
O              8.761               29.321              -4.899              
C              5.948               29.605              -6.348              
C              6.18                30.723              -7.351              
C              5.08                31.77               -7.377              
O              4.213               31.807              -6.462              
O              5.034               32.512              -8.394              
H              4.907               31.464              -4.731              
H              6.296               28.96               -4.461              
H              6.427               28.8                -6.683              
H              4.969               29.435              -6.311              
H              7.021               31.183              -7.112              
H              6.231               30.325              -8.254              
N              8.234               31.492              -5.008              
C              9.602               31.949              -4.913              
C              10.184              31.766              -3.505              
O              11.35               31.348              -3.338              
C              9.68                33.431              -5.284              
C              9.28                33.729              -6.725              
C              8.924               35.186              -6.993              
O              8.769               36.037              -6.051              
O              8.76                35.451              -8.204              
H              7.421               32.137              -5.142              
H              10.182              31.446              -5.575              
H              9.061               33.921              -4.697              
H              10.612              33.722              -5.169              
H              10.043              33.499              -7.31               
H              8.483               33.186              -6.944              
N              9.409               32.113              -2.468              
C              9.845               31.856              -1.116              
C              10.078              30.387              -0.916              
O              11.065              29.995              -0.3                
C              8.814               32.383              -0.108              
C              8.708               33.905              -0.041              
C              7.635               34.339              0.939               
C              10.044              34.505              0.332               
H              8.517               32.559              -2.723              
H              10.711              32.346              -0.958              
H              7.927               32.032              -0.371              
H              9.075               32.06               0.789               
H              8.487               34.256              -0.955              
H              7.855               33.996              1.853               
H              7.586               35.339              0.964               
H              6.749               33.972              0.653               
H              10.732              34.257              -0.354              
H              9.968               35.504              0.374               
H              10.334              34.159              1.227               
N              9.161               29.564              -1.416              
C              9.323               28.129              -1.201              
C              10.588              27.624              -1.885              
O              11.397              26.903              -1.279              
C              8.075               27.359              -1.614              
C              8.16                25.892              -1.23               
C              6.97                25.074              -1.703              
N              6.934               23.729              -1.117              
C              7.686               22.68               -1.488              
N              8.567               22.762              -2.486              
N              7.542               21.52               -0.857              
H              8.394               29.994              -1.924              
H              9.4                 27.955              -0.214              
H              7.296               27.754              -1.153              
H              7.981               27.416              -2.595              
H              8.991               25.491              -1.628              
H              8.212               25.812              -0.23               
H              6.136               25.562              -1.45               
H              7.023               24.995              -2.698              
H              6.276               23.572              -0.355              
H              8.689               23.633              -2.962              
H              9.098               21.963              -2.751              
H              6.892               21.44               -0.1                
H              8.083               20.727              -1.136              
N              10.778              27.996              -3.154              
C              11.963              27.507              -3.875              
C              13.26               27.94               -3.19               
O              14.211              27.169              -3.089              
C              11.935              27.997              -5.311              
C              12.985              27.331              -6.184              
C              13.094              27.908              -7.585              
H              10.072              28.611              -3.554              
H              11.932              26.5                -3.868              
H              11.038              27.804              -5.705              
H              12.102              28.982              -5.323              
H              13.881              27.421              -5.734              
H              12.765              26.351              -6.26               
O              12.663              29.043              -7.847              
N              13.656              27.127              -8.5                
H              13.751              27.439              -9.464              
H              13.993              26.207              -8.223              
N              13.294              29.172              -2.728              
C              14.506              29.697              -2.142              
C              14.756              29.175              -0.73               
O              15.9                28.874              -0.362              
C              14.427              31.192              -2.051              
H              12.415              29.707              -2.818              
H              15.297              29.43               -2.723              
H              13.902              31.461              -1.239              
H              15.349              31.583              -1.985              
H              13.976              31.564              -2.866              
N              13.693              29.065              0.084               
C              13.852              28.775              1.502               
C              13.793              27.305              1.81                
O              14.397              26.876              2.805               
C              12.823              29.551              2.337               
C              12.929              31.071              2.291               
C              11.684              31.694              2.894               
C              14.204              31.539              2.963               
H              12.779              29.202              -0.381              
H              14.756              29.135              1.799               
H              11.917              29.303              2.005               
H              12.93               29.27               3.286               
H              13.021              31.363              1.341               
H              11.588              31.4                3.846               
H              11.758              32.692              2.862               
H              10.878              31.405              2.375               
H              14.997              31.147              2.493               
H              14.259              32.539              2.925               
H              14.209              31.245              3.921               
N              13.081              26.488              1.018               
C              12.967              25.063              1.361               
C              14.328              24.364              1.532               
O              14.442              23.528              2.438               
C              12.018              24.291              0.405               
C              11.549              22.943              0.936               
S              10.573              22.937              2.443               
C              8.961               23.418              1.834               
H              12.651              26.923              0.202               
H              12.473              24.993              2.243               
H              11.21               24.867              0.227               
H              12.499              24.144              -0.469              
H              11.032              22.461              0.158               
H              12.398              22.333              1.043               
H              8.962               23.407              0.833               
H              8.269               22.778              2.171               
H              8.742               24.341              2.154               
N              15.353              24.703              0.741               
C              16.618              23.989              0.945               
C              17.516              24.545              -0.177              
C              16.549              24.884              -1.265              
C              15.329              25.418              -0.556              
H              16.498              22.999              0.802               
H              18.004              25.357              0.137               
H              18.169              23.853              -0.477              
H              16.936              25.577              -1.879              
H              16.32               24.067              -1.801              
H              15.392              26.403              -0.411              
H              14.491              25.204              -1.057              
H              17.0359             24.1865             1.94606             
