397
2.xyz
C              -1.517              7.447               0.814               
O              -0.943              7.04                1.805               
N              -1.922              6.632               -0.164              
C              -1.685              5.184               -0.06               
C              -0.193              4.841               -0.047              
O              0.226               3.951               0.681               
C              -2.395              4.411               -1.185              
C              -3.931              4.415               -1.077              
C              -4.639              5.656               -1.69               
O              -4.01               6.743               -2.036              
O              -5.867              5.539               -1.852              
H              -2.39               7.082               -0.955              
H              -2.116              4.834               0.784               
H              -2.161              4.839               -2.037              
H              -2.102              3.476               -1.139              
H              -4.277              3.624               -1.557              
H              -4.175              4.392               -0.12               
N              0.553               5.539               -0.901              
C              1.998               5.372               -1.048              
C              2.699               5.814               0.272               
O              3.571               5.164               0.774               
C              2.521               6.149               -2.235              
C              2.133               5.555               -3.582              
C              2.382               6.46                -4.755              
O              2.881               7.569               -4.584              
O              2.087               6.033               -5.891              
H              0.005               6.234               -1.472              
H              2.22                4.418               -1.224              
H              2.145               7.059               -2.197              
H              3.505               6.156               -2.19               
H              2.666               4.73                -3.715              
H              1.164               5.35                -3.557              
N              2.269               6.931               0.836               
C              2.722               7.402               2.134               
C              2.464               6.378               3.249               
O              3.35                6.041               4.058               
C              2.095               8.773               2.467               
C              2.563               9.812               1.5                 
C              2.43                9.201               3.891               
C              1.845               11.136              1.535               
H              1.562               7.456               0.258               
H              3.724               7.502               2.07                
H              1.105               8.674               2.385               
H              3.552               9.983               1.654               
H              2.486               9.438               0.558               
H              1.977               10.067              4.093               
H              2.115               8.503               4.531               
H              3.418               9.313               3.981               
H              1.942               11.545              2.442               
H              2.24                11.749              0.85                
H              0.875               10.996              1.336               
N              1.254               5.829               3.278               
C              0.898               4.794               4.244               
C              1.792               3.577               4.11                
O              2.254               3.017               5.089               
C              -0.523              4.329               3.949               
S              -1.226              3.365               5.288               
H              0.593               6.195               2.564               
H              1.019               5.175               5.171               
H              -1.089              5.132               3.805               
H              -0.501              3.766               3.131               
H              -0.985              3.78                6.168               
N              2.009               3.156               2.871               
C              2.916               2.028               2.625               
C              4.285               2.288               3.246               
O              4.842               1.435               3.923               
C              3.04                1.746               1.109               
C              3.785               0.459               0.804               
C              3.679               0.066               -0.66               
O              2.556               0.064               -1.188              
O              4.704               -0.236              -1.28               
H              1.511               3.663               2.13                
H              2.522               1.19                3.017               
H              2.132               1.663               0.754               
H              3.541               2.488               0.715               
H              4.735               0.596               1.005               
H              3.387               -0.264              1.333               
N              4.817               3.48                3.01                
C              6.133               3.831               3.432               
C              6.321               3.842               4.969               
O              7.289               3.29                5.508               
C              6.493               5.187               2.899               
H              4.178               4.131               2.487               
H              6.806               3.164               3.05                
H              5.682               5.63                2.508               
H              6.853               5.763               3.637               
H              7.192               5.102               2.184               
N              5.34                4.418               5.644               
C              5.339               4.465               7.095               
C              5.257               3.046               7.685               
O              5.918               2.749               8.672               
C              4.184               5.311               7.603               
C              4.525               6.737               7.822               
C              5.172               7.139               8.964               
C              4.245               7.695               6.853               
C              5.498               8.467               9.126               
C              4.586               9.033               7.024               
C              5.205               9.418               8.178               
H              4.585               4.826               5.056               
H              6.225               4.84                7.384               
H              3.455               5.264               6.929               
H              3.884               4.925               8.468               
H              5.407               6.483               9.67                
H              3.783               7.412               6.004               
H              5.977               8.75                9.991               
H              4.37                9.697               6.294               
H              5.445               10.375              8.338               
N              4.455               2.175               7.07                
C              4.421               0.768               7.56                
C              5.764               0.069               7.302               
O              6.249               -0.69               8.156               
C              3.258               0.036               6.881               
O              2.065               0.459               7.511               
C              3.373               -1.502              6.999               
H              3.907               2.521               6.295               
H              4.258               0.789               8.548               
H              3.226               0.31                5.904               
H              2.476               -1.911              6.84                
H              4.022               -1.835              6.317               
H              3.694               -1.737              7.915               
H              2.233               1.266               8.092               
N              6.346               0.277               6.127               
C              7.6                 -0.393              5.77                
C              8.685               -0.065              6.799               
O              9.457               -0.953              7.192               
C              8.065               -0.069              4.369               
C              7.222               -0.633              3.225               
C              8.051               -0.667              1.932               
C              7.248               -1.222              0.769               
N              8.083               -1.238              -0.461              
H              5.853               0.935               5.5                 
H              7.449               -1.384              5.767               
H              8.09                0.935               4.263               
H              9.006               -0.417              4.255               
H              6.945               -1.558              3.449               
H              6.433               -0.051              3.082               
H              8.333               0.261               1.715               
H              8.844               -1.247              2.081               
H              6.961               -2.151              0.985               
H              6.451               -0.644              0.619               
H              8.176               -2.178              -0.787              
H              7.646               -0.681              -1.167              
H              8.988               -0.865              -0.254              
N              8.729               1.168               7.284               
C              9.754               1.541               8.276               
C              9.421               1.22                9.728               
O              10.196              1.598               10.624              
C              10.179              3.044               8.169               
C              10.734              3.283               6.79                
C              9.081               4.029               8.541               
H              8.019               1.818               6.927               
H              10.613              1.037               8.032               
H              10.908              3.182               8.818               
H              11.432              2.595               6.578               
H              9.999               3.223               6.11                
H              11.149              4.194               6.741               
H              8.199               3.672               8.233               
H              9.067               4.149               9.534               
H              9.261               4.907               8.099               
N              8.294               0.553               9.981               
C              7.916               0.221               11.347              
C              7.377               1.361               12.157              
O              7.471               1.365               13.403              
H              7.736               0.304               9.149               
H              7.222               -0.537              11.32               
H              8.733               -0.182              11.825              
N              6.806               2.351               11.474              
C              6.121               3.435               12.113              
C              4.704               3.514               11.523              
O              4.278               4.557               11.018              
C              6.899               4.764               11.92               
C              8.39                4.737               12.296              
C              9.288               5.773               11.63               
H              6.907               2.259               10.433              
H              6.024               3.232               13.084              
H              6.83                5.032               10.952              
H              6.453               5.475               12.478              
H              8.462               4.854               13.302              
H              8.752               3.813               12.077              
O              8.843               6.749               11.093              
N              10.581              5.485               11.58               
H              11.24               6.122               11.139              
H              10.908              4.613               11.992              
N              3.934               2.415               11.63               
C              2.669               2.359               10.918              
C              1.687               3.468               11.35               
O              1.542               3.821               12.53               
C              2.124               0.954               11.229              
C              2.792               0.61                12.496              
C              4.163               1.205               12.434              
H              2.812               2.397               9.914               
H              1.131               0.984               11.331              
H              2.367               0.32                10.498              
H              2.277               0.98                13.287              
H              2.844               -0.396              12.614              
H              4.502               1.445               13.339              
H              4.809               0.598               11.978              
N              1.05                4.038               10.318              
C              -0.06               4.974               10.464              
C              -1.236              4.43                9.659               
O              -1.065              3.868               8.564               
C              0.331               6.346               9.927               
C              1.657               6.928               10.431              
C              1.593               7.207               11.924              
C              2.827               7.784               12.546              
N              4.049               7.145               12.022              
H              1.427               3.746               9.38                
H              -0.322              5.023               11.422              
H              0.384               6.289               8.922               
H              -0.401              6.999               10.165              
H              2.384               6.27                10.253              
H              1.839               7.779               9.947               
H              0.815               7.842               12.093              
H              1.366               6.335               12.399              
H              2.864               8.772               12.356              
H              2.789               7.654               13.544              
H              4.295               7.556               11.142              
H              4.803               7.275               12.669              
H              3.89                6.164               11.894              
N              -2.429              4.69                10.143              
C              -3.643              4.34                9.408               
C              -3.79               5.226               8.171               
O              -3.388              6.404               8.177               
C              -4.934              4.48                10.282              
O              -5.156              5.857               10.659              
C              -4.883              3.579               11.486              
H              -2.443              5.155               11.071              
H              -3.57               3.386               9.105               
H              -5.733              4.169               9.726               
H              -4.547              2.668               11.225              
H              -4.267              3.962               12.182              
H              -5.8                3.481               11.887              
H              -6.068              6.152               10.361              
N              -4.326              4.665               7.08                
C              -4.616              5.509               5.942               
C              -5.538              6.674               6.365               
O              -5.451              7.793               5.864               
C              -5.253              4.702               4.828               
C              -5.461              5.45                3.5                 
C              -4.152              5.902               2.888               
C              -6.178              4.53                2.547               
H              -4.494              3.663               7.132               
H              -3.762              5.906               5.597               
H              -4.668              3.921               4.632               
H              -6.148              4.397               5.133               
H              -6.047              6.25                3.673               
H              -3.571              5.107               2.707               
H              -4.329              6.383               2.028               
H              -3.679              6.519               3.519               
H              -7.066              4.264               2.931               
H              -6.327              4.994               1.67                
H              -5.63               3.704               2.39                
N              -6.46               6.399               7.297               
C              -7.365              7.427               7.754               
C              -6.621              8.644               8.332               
O              -6.983              9.802               8.07                
C              -8.381              6.883               8.771               
C              -9.474              6.03                8.129               
H              -6.456              5.426               7.637               
H              -7.88               7.763               6.951               
H              -7.893              6.322               9.434               
H              -8.812              7.656               9.228               
O              -9.755              6.133               6.935               
N              -10.125             5.186               8.951               
H              -9.879              5.157               9.917               
H              -10.843             4.601               8.59                
N              -5.601              8.386               9.134               
C              -4.853              9.476               9.775               
C              -4.087              10.263              8.693               
O              -4.045              11.484              8.709               
C              -3.924              8.918               10.868              
C              -2.762              9.874               11.176              
C              -2.08               9.63                12.519              
O              -1.97               8.437               12.982              
O              -1.585              10.669              13.058              
H              -5.379              7.388               9.269               
H              -5.483              10.089              10.244              
H              -4.447              8.82                11.683              
H              -3.541              8.087               10.539              
H              -2.08               9.76                10.471              
H              -3.119              10.795              11.188              
N              -3.528              9.549               7.725               
C              -2.751              10.218              6.666               
C              -3.696              11.119              5.856               
O              -3.358              12.272              5.538               
C              -2.007              9.208               5.796               
C              -0.849              8.603               6.604               
C              -1.489              9.843               4.531               
C              -0.482              7.257               6.085               
H              -3.674              8.535               7.77                
H              -2.112              10.822              7.13                
H              -2.63               8.474               5.565               
H              -0.075              9.214               6.536               
H              -1.143              8.528               7.546               
H              -1.028              9.155               3.968               
H              -2.249              10.235              4.01                
H              -0.839              10.57               4.756               
H              -0.197              7.325               5.125               
H              0.275               6.876               6.623               
H              -1.269              6.638               6.148               
N              -4.856              10.59               5.476               
C              -5.824              11.415              4.716               
C              -6.277              12.623              5.522               
O              -6.487              13.686              4.984               
C              -7.041              10.58               4.25                
C              -6.71               9.478               3.27                
C              -8.009              8.767               2.924               
C              -7.785              7.654               1.918               
N              -8.191              8.02                0.54                
H              -5.019              9.618               5.737               
H              -5.374              11.732              3.872               
H              -7.457              10.174              5.063               
H              -7.691              11.209              3.822               
H              -6.33               9.869               2.449               
H              -6.094              8.835               3.691               
H              -8.391              8.374               3.755               
H              -8.643              9.427               2.533               
H              -6.805              7.407               1.92                
H              -8.308              6.84                2.212               
H              -9.112              7.674               0.36                
H              -8.185              9.016               0.443               
H              -7.55               7.618               -0.115              
N              -6.436              12.475              6.83                
C              -6.878              13.562              7.644               
C              -5.834              14.664              7.649               
O              -6.175              15.814              7.521               
C              -7.176              13.053              9.042               
C              -7.73               14.131              9.94                
C              -8.015              13.581              11.33               
N              -8.551              14.613              12.207              
C              -8.878              14.376              13.471              
N              -8.926              13.148              13.969              
N              -9.219              15.403              14.255              
H              -6.215              11.524              7.188               
H              -7.734              13.938              7.27                
H              -7.848              12.327              8.976               
H              -6.333              12.718              9.441               
H              -7.069              14.869              10.031              
H              -8.584              14.477              9.566               
H              -8.677              12.845              11.24               
H              -7.161              13.237              11.705              
H              -8.677              15.531              11.844              
H              -8.691              12.367              13.386              
H              -9.193              13                  14.919              
H              -9.207              16.334              13.893              
H              -9.485              15.236              15.203              
N              -4.566              14.273              7.748               
C              -3.474              15.261              7.716               
C              -3.53               16.069              6.438               
O              -3.384              17.29               6.399               
C              -2.106              14.582              7.878               
C              -1.92               14.059              9.321               
C              -1.001              15.594              7.562               
C              -0.855              13.019              9.506               
H              -4.417              13.261              7.845               
H              -3.655              15.893              8.473               
H              -2.072              13.798              7.268               
H              -1.719              14.852              9.909               
H              -2.805              13.682              9.621               
H              -0.113              15.148              7.646               
H              -1.121              15.932              6.632               
H              -1.057              16.354              8.205               
H              0.032               13.391              9.229               
H              -0.813              12.746              10.468              
H              -1.065              12.217              8.945               
N              -3.763              15.344              5.372               
C              -3.789              15.946              4.044               
C              -5.108              16.643              3.598               
O              -5.176              17.184              2.482               
C              -3.463              14.889              3.026               
C              -2.043              14.287              3.124               
C              -1.881              13.16               2.104               
C              -0.977              15.366              2.98                
H              -3.924              14.334              5.542               
H              -3.041              16.653              3.991               
H              -4.099              14.132              3.134               
H              -3.542              15.282              2.117               
H              -1.912              13.926              4.042               
H              -2.022              13.523              1.184               
H              -0.96               12.778              2.176               
H              -2.555              12.446              2.29                
H              -1.087              16.044              3.708               
H              -0.07               14.95               3.047               
H              -1.073              15.814              2.091               
N              -6.124              16.634              4.457               
C              -7.486              17.104              4.082               
C              -7.701              18.593              4.329               
O              -6.885              19.279              4.947               
C              -8.54               16.363              4.886               
O              -8.443              16.687              6.273               
O              -8.721              19.16               3.965               
H              -5.899              16.277              5.404               
H              -7.601              16.928              3.091               
H              -9.444              16.623              4.562               
H              -8.405              15.383              4.78                
H              -7.57               16.359              6.626               
H              -1.75362            8.48491             0.707208            
