299
3.xyz
C              -8.292              14.999              78.798              
C              -7.979              14.384              77.44               
O              -8.888              14.114              76.65               
C              -8.013              16.518              78.797              
C              -8.519              17.165              80.09               
C              -8.635              17.189              77.577              
C              -10.011             17.08               80.26               
H              -9.26               14.796              78.99               
H              -7.028              16.647              78.752              
H              -8.073              16.714              80.861              
H              -8.247              18.126              80.082              
H              -8.391              18.157              77.57               
H              -8.292              16.753              76.747              
H              -9.628              17.096              77.617              
H              -10.293             16.12               80.277              
H              -10.277             17.518              81.119              
H              -10.463             17.545              79.498              
N              -6.702              14.154              77.17               
C              -6.219              13.666              75.885              
C              -5.936              12.172              75.995              
O              -5.032              11.749              76.728              
C              -4.974              14.445              75.439              
C              -4.407              13.838              74.186              
C              -5.328              15.908              75.195              
H              -6.053              14.357              77.977              
H              -6.943              13.794              75.207              
H              -4.288              14.349              76.154              
H              -4.28               12.851              74.31               
H              -5.032              13.991              73.417              
H              -3.52               14.256              73.973              
H              -5.977              16.21               75.892              
H              -4.497              16.46               75.246              
H              -5.739              16                  74.289              
N              -6.691              11.369              75.242              
C              -6.607              9.919               75.368              
C              -5.462              9.31                74.573              
O              -4.9                8.297               74.998              
C              -7.939              9.304               74.955              
C              -9.07               9.688               75.897              
C              -10.383             9.031               75.518              
C              -11.479             9.426               76.504              
N              -12.818             8.917               76.093              
H              -7.321              11.855              74.582              
H              -6.48               9.685               76.35               
H              -8.166              9.627               74.046              
H              -7.845              8.316               74.964              
H              -8.825              9.41                76.83               
H              -9.187              10.685              75.877              
H              -10.65              9.335               74.614              
H              -10.276             8.047               75.546              
H              -11.248             9.055               77.409              
H              -11.512             10.428              76.566              
H              -13.482             9.114               76.813              
H              -13.097             9.368               75.246              
H              -12.766             7.93                75.946              
N              -5.114              9.883               73.423              
C              -4.102              9.317               72.533              
C              -3.163              10.426              72.096              
O              -3.342              11.022              71.028              
C              -4.741              8.65                71.315              
C              -5.632              7.497               71.694              
H              -5.625              10.77               73.212              
H              -3.566              8.669               73.071              
H              -5.284              9.333               70.834              
H              -4.012              8.314               70.725              
O              -6.851              7.565               71.545              
N              -5.028              6.432               72.202              
H              -4.034              6.425               72.322              
H              -5.565              5.63                72.469              
N              -2.148              10.727              72.896              
C              -1.207              11.793              72.521              
C              -0.451              11.483              71.236              
O              -0.235              10.322              70.872              
C              -0.249              11.85               73.719              
C              -1.081              11.325              74.873              
C              -1.894              10.211              74.251              
H              -1.691              12.681              72.447              
H              0.546               11.267              73.568              
H              0.045               12.785              73.897              
H              -0.489              10.978              75.593              
H              -1.67               12.044              75.226              
H              -1.376              9.362               74.214              
H              -2.749              10.07               74.742              
N              -0.055              12.548              70.539              
C              0.75                12.428              69.329              
C              1.542               13.713              69.146              
O              1.078               14.785              69.523              
C              -0.159              12.174              68.117              
C              0.563               11.878              66.805              
S              1.734               10.505              66.887              
C              0.694               9.158               67.456              
H              -0.368              13.461              70.93               
H              1.397               11.679              69.455              
H              -0.769              11.392              68.326              
H              -0.749              12.987              67.977              
H              -0.151              11.705              66.078              
H              1.037               12.743              66.497              
H              -0.105              9.078               66.86               
H              1.213               8.303               67.434              
H              0.393               9.341               68.393              
N              2.739               13.6                68.566              
C              3.594               14.761              68.348              
C              4.499               14.506              67.152              
O              4.592               13.385              66.638              
C              4.451               15.052              69.575              
C              5.519               14.021              69.768              
O              5.171               12.852              70.048              
O              6.706               14.365              69.584              
H              2.999               12.635              68.291              
H              2.998               15.529              68.108              
H              4.874               15.941              69.447              
H              3.855               15.059              70.368              
N              5.215               15.556              66.743              
C              6.041               15.464              65.541              
C              7.129               14.406              65.67               
O              7.423               13.707              64.697              
C              6.656               16.823              65.195              
C              5.688               17.925              64.752              
C              6.42                19.25               64.699              
C              5.079               17.629              63.394              
H              5.135               16.399              67.326              
H              5.445               15.215              64.762              
H              7.134               17.157              66.006              
H              7.307               16.684              64.452              
H              4.941               17.98               65.408              
H              7.177               19.192              64.046              
H              5.79                19.973              64.41               
H              6.783               19.472              65.606              
H              4.573               16.766              63.433              
H              4.454               18.368              63.137              
H              5.805               17.556              62.708              
N              7.74                14.269              66.851              
C              8.846               13.32               66.979              
C              8.357               11.893              66.803              
O              9.073               11.047              66.249              
C              9.567               13.487              68.322              
O              8.785               13.007              69.402              
H              7.385               14.852              67.608              
H              9.508               13.516              66.247              
H              10.424              12.977              68.29               
H              9.756               14.457              68.464              
H              7.934               13.528              69.454              
N              7.15                11.6                67.284              
C              6.593               10.262              67.129              
C              6.253               9.986               65.671              
O              6.573               8.912               65.14               
C              5.366               10.113              68.025              
O              5.77                10.326              69.388              
C              4.755               8.727               67.891              
H              6.664               12.376              67.758              
H              7.283               9.592               67.426              
H              4.686               10.829              67.784              
H              4.734               8.276               68.786              
H              3.819               8.8                 67.539              
H              5.301               8.174               67.258              
H              5.573               11.272              69.665              
N              5.64                10.959              65.001              
C              5.342               10.833              63.578              
C              6.623               10.651              62.781              
O              6.705               9.782               61.901              
C              4.536               12.051              63.092              
C              3.186               12.086              63.798              
C              4.345               11.984              61.582              
C              2.435               13.368              63.548              
H              5.399               11.794              65.566              
H              4.815               9.985               63.475              
H              5.038               12.869              63.341              
H              2.64                11.319              63.476              
H              3.342               11.989              64.777              
H              3.838               12.787              61.275              
H              5.237               11.962              61.134              
H              3.834               11.159              61.347              
H              2.271               13.474              62.567              
H              1.559               13.342              64.031              
H              2.975               14.142              63.88               
N              7.648               11.443              63.095              
C              8.905               11.343              62.362              
C              9.534               9.974               62.549              
O              10.023              9.383               61.583              
C              9.876               12.445              62.789              
C              11.123              12.495              61.893              
C              12.156              13.496              62.358              
C              13.278              13.636              61.319              
N              14.108              12.411              61.041              
H              7.479               12.101              63.866              
H              8.721               11.485              61.381              
H              9.415               13.316              62.721              
H              10.17               12.265              63.716              
H              11.537              11.576              61.875              
H              10.833              12.729              60.957              
H              11.728              14.382              62.471              
H              12.56               13.184              63.207              
H              12.863              13.952              60.439              
H              13.903              14.388              61.62               
H              15.055              12.688              60.9                
H              14.045              11.794              61.822              
H              13.758              11.963              60.222              
N              9.512               9.448               63.783              
C              10.098              8.136               64.024              
C              9.353               7.071               63.245              
O              9.973               6.19                62.643              
C              10.094              7.826               65.52               
C              10.653              6.453               65.846              
C              10.709              6.203               67.345              
N              9.412               6.403               67.986              
C              9.113               7.45                68.75               
N              10.022              8.388               68.976              
N              7.906               7.555               69.29               
H              9.067               10.028              64.5                
H              11.058              8.149               63.721              
H              10.652              8.505               65.981              
H              9.157               7.864               65.844              
H              10.074              5.751               65.436              
H              11.581              6.376               65.485              
H              11.007              5.263               67.491              
H              11.372              6.835               67.739              
H              8.702               5.707               67.841              
H              10.929              8.34                68.568              
H              9.792               9.169               69.573              
H              7.216               6.851               69.102              
H              7.682               8.329               69.878              
N              8.022               7.15                63.224              
C              7.238               6.172               62.482              
C              7.537               6.245               60.991              
O              7.658               5.209               60.324              
C              5.744               6.339               62.777              
C              5.385               5.967               64.226              
C              3.922               6.23                64.59               
C              2.985               5.304               63.874              
N              1.604               5.483               64.425              
H              7.618               7.932               63.757              
H              7.47                5.248               62.813              
H              5.498               7.287               62.634              
H              5.235               5.743               62.172              
H              5.581               4.988               64.363              
H              5.973               6.497               64.849              
H              3.818               6.106               65.576              
H              3.703               7.173               64.345              
H              2.974               5.52                62.904              
H              3.267               4.362               64.017              
H              1.469               4.846               65.181              
H              1.501               6.421               64.75               
H              0.938               5.299               63.704              
N              7.705               7.453               60.46               
C              7.98                7.626               59.042              
C              9.413               7.232               58.702              
O              9.661               6.679               57.625              
C              7.697               9.082               58.646              
C              7.616               9.37                57.146              
C              6.488               8.586               56.485              
C              7.438               10.868              56.914              
H              7.624               8.24                61.131              
H              7.356               7.033               58.517              
H              6.823               9.341               59.047              
H              8.427               9.645               59.02               
H              8.488               9.118               56.719              
H              5.616               8.84                56.903              
H              6.464               8.797               55.508              
H              6.645               7.607               56.611              
H              8.217               11.36               57.303              
H              7.386               11.048              55.932              
H              6.595               11.175              57.355              
N              10.362              7.476               59.613              
C              11.754              7.089               59.381              
C              11.937              5.574               59.376              
O              12.776              5.048               58.631              
C              12.653              7.661               60.476              
C              13.011              9.108               60.264              
O              12.982              9.588               59.113              
O              13.359              9.776               61.262              
H              10.032              7.949               60.47               
H              12.005              7.42                58.46               
H              12.17               7.571               61.345              
H              13.49               7.119               60.498              
N              11.214              4.856               60.235              
C              11.511              3.453               60.507              
C              10.537              2.491               59.84               
O              10.547              1.298               60.161              
C              11.567              3.188               62.014              
O              10.287              3.451               62.594              
C              12.615              4.058               62.687              
H              10.434              5.374               60.686              
H              12.445              3.252               60.159              
H              11.79               2.204               62.17               
H              12.43               5.025               62.495              
H              12.594              3.912               63.679              
H              13.527              3.824               62.341              
H              10.134              4.442               62.673              
N              9.689               2.974               58.937              
C              8.828               2.102               58.165              
C              7.603               1.593               58.884              
O              7.067               0.544               58.508              
H              9.701               4.008               58.84               
H              8.534               2.594               57.31               
H              9.379               1.299               57.832              
N              7.126               2.306               59.906              
H              7.647               3.177               60.111              
H              6.31486             2                   60.4278             
H              -7.73225            14.5426             79.5754             
