184
4.xyz
C              5.957               1.865               60.658              
C              4.638               2.188               59.971              
O              3.609               1.611               60.339              
C              5.951               2.475               62.058              
C              7.044               1.965               62.969              
C              6.89                2.486               64.384              
H              6.014               0.855               60.756              
H              6.051               3.471               61.973              
H              5.064               2.277               62.49               
H              7.008               0.968               62.993              
H              7.928               2.264               62.615              
O              5.849               2.299               65.017              
N              7.921               3.156               64.882              
H              7.886               3.548               65.821              
H              8.755               3.273               64.309              
N              4.629               3.112               59.016              
C              3.439               3.393               58.229              
C              3.432               2.476               57.017              
O              4.459               2.294               56.353              
C              3.435               4.847               57.769              
C              3.269               5.857               58.879              
C              2.221               5.756               59.792              
C              4.158               6.911               59.012              
C              2.06                6.691               60.798              
C              4.014               7.846               60.017              
C              2.967               7.728               60.911              
O              2.829               8.667               61.905              
H              5.535               3.608               58.884              
H              2.635               3.185               58.784              
H              4.302               5.032               57.306              
H              2.681               4.97                57.122              
H              1.575               4.994               59.717              
H              4.92                6.995               58.367              
H              1.295               6.618               61.439              
H              4.661               8.605               60.099              
H              2.062               8.414               62.492              
N              2.28                1.882               56.742              
C              2.139               1.058               55.557              
C              1.343               1.731               54.454              
O              1.53                1.386               53.282              
C              1.503               -0.29               55.917              
C              2.24                -1.037              57.024              
C              3.699               -1.298              56.686              
O              4.022               -1.75               55.587              
N              4.589               -1.007              57.631              
H              1.521               2.053               57.422              
H              3.07                0.869               55.195              
H              0.565               -0.131              56.221              
H              1.497               -0.87               55.102              
H              2.2                 -0.491              57.86               
H              1.786               -1.914              57.175              
H              5.579               -1.168              57.48               
H              4.259               -0.617              58.512              
N              0.481               2.688               54.795              
C              -0.334              3.407               53.829              
C              -0.337              4.878               54.209              
O              -0.2                5.217               55.392              
C              -1.788              2.912               53.842              
C              -2.006              1.499               53.349              
C              -3.47               1.114               53.435              
O              -3.856              0.45                54.42               
O              -4.24               1.508               52.534              
H              0.443               2.877               55.827              
H              0.046               3.297               52.914              
H              -2.106              2.959               54.78               
H              -2.312              3.52                53.261              
H              -1.743              1.453               52.41               
H              -1.506              0.887               53.922              
N              -0.489              5.776               53.231              
C              -0.452              7.212               53.554              
C              -1.51               7.648               54.544              
O              -1.264              8.588               55.309              
C              -0.616              7.91                52.196              
C              -0.925              6.838               51.209              
C              -0.52               5.523               51.781              
H              0.48                7.471               53.881              
H              -1.363              8.589               52.239              
H              0.232               8.398               51.947              
H              -1.922              6.845               50.984              
H              -0.435              7.019               50.33               
H              -1.184              4.803               51.567              
H              0.386               5.238               51.457              
N              -2.672              6.984               54.573              
C              -3.733              7.414               55.48               
C              -3.28               7.357               56.934              
O              -3.748              8.149               57.762              
C              -5.014              6.597               55.241              
C              -5.003              5.195               55.783              
C              -4.816              4.048               55.074              
C              -5.212              4.797               57.148              
N              -4.875              2.958               55.913              
C              -5.115              3.392               57.191              
C              -5.46               5.493               58.335              
C              -5.261              2.667               58.38               
C              -5.605              4.77                59.515              
C              -5.502              3.378               59.525              
H              -2.743              6.188               53.933              
H              -3.948              8.375               55.266              
H              -5.782              7.073               55.671              
H              -5.172              6.531               54.255              
H              -4.659              3.998               54.089              
H              -4.761              2.005               55.636              
H              -5.532              6.486               58.345              
H              -5.189              1.667               58.373              
H              -5.786              5.262               60.361              
H              -5.608              2.893               60.397              
N              -2.351              6.452               57.26               
C              -1.916              6.312               58.646              
C              -1.099              7.515               59.094              
O              -1.219              7.963               60.241              
C              -1.114              5.021               58.811              
C              -1.913              3.768               58.508              
C              -1.059              2.535               58.54               
H              -1.989              5.891               56.479              
H              -2.739              6.265               59.226              
H              -0.329              5.049               58.191              
H              -0.789              4.964               59.756              
H              -2.637              3.679               59.191              
H              -2.318              3.861               57.599              
O              0.005               2.498               57.939              
N              -1.53               1.502               59.23               
H              -1.014              0.625               59.287              
H              -2.426              1.598               59.709              
N              -0.264              8.042               58.197              
C              0.49                9.26                58.479              
C              -0.445              10.452              58.643              
O              -0.366              11.184              59.634              
C              1.486               9.493               57.338              
C              2.101               10.875              57.322              
C              3.142               11.2                58.182              
C              1.658               11.848              56.427              
C              3.713               12.468              58.17               
C              2.228               13.123              56.416              
C              3.247               13.418              57.29               
O              3.821               14.68               57.278              
H              -0.2                7.521               57.303              
H              0.987               9.13                59.345              
H              2.222               8.824               57.425              
H              1.007               9.356               56.473              
H              3.49                10.514              58.823              
H              0.928               11.634              55.787              
H              4.462               12.684              58.801              
H              1.891               13.811              55.774              
H              4.439               14.746              56.499              
N              -1.341              10.656              57.675              
C              -2.307              11.748              57.735              
C              -3.136              11.666              59.015              
O              -3.384              12.677              59.684              
C              -3.174              11.728              56.463              
C              -4.33               12.709              56.578              
C              -2.313              12.037              55.221              
H              -1.29               9.979               56.888              
H              -1.8                12.616              57.751              
H              -3.571              10.817              56.381              
H              -3.979              13.613              56.824              
H              -4.809              12.766              55.702              
H              -4.965              12.396              57.284              
H              -1.783              11.225              54.989              
H              -2.916              12.281              54.467              
H              -1.704              12.796              55.435              
N              -3.54               10.456              59.395              
C              -4.323              10.249              60.609              
C              -3.571              10.715              61.854              
O              -4.153              11.365              62.732              
C              -4.662              8.762               60.693              
C              -5.566              8.422               61.832              
O              -6.673              8.984               61.903              
O              -5.179              7.539               62.63               
H              -3.253              9.683               58.761              
H              -5.15               10.823              60.533              
H              -5.103              8.504               59.834              
H              -3.804              8.261               60.792              
N              -2.279              10.377              61.96               
C              -1.491              10.815              63.113              
C              -0.121              10.138              63.123              
C              -0.149              8.739               63.719              
O              -1.131              8.372               64.397              
O              0.861               8.029               63.536              
H              -1.909              9.807               61.19               
H              -2.012              10.569              63.94               
H              0.2                 10.076              62.183              
H              0.498               10.7                63.661              
H              6.8079              2.186               60.1106             
H              -1.3682             11.9044             63.1231             
