374
5.xyz
C              15.506              8.474               9.402               
C              14.201              7.783               9.034               
O              13.547              8.169               8.058               
C              16.696              7.738               8.781               
H              15.495              9.407               9.02                
H              17.518              7.933               9.313               
H              16.517              6.756               8.788               
H              16.822              8.05                7.841               
N              13.808              6.755               9.79                
C              12.545              6.082               9.505               
C              11.361              7.001               9.759               
O              10.388              6.98                9.007               
C              12.426              4.808               10.338              
H              14.444              6.496               10.551              
H              12.537              5.806               8.534               
H              11.49               4.719               10.676              
H              12.653              4.018               9.77                
H              13.057              4.857               11.111              
N              11.428              7.829               10.804              
C              10.369              8.811               11.02               
C              10.275              9.771               9.839               
O              9.178               10.056              9.335               
C              10.595              9.557               12.345              
C              9.633               10.716              12.455              
C              10.411              8.589               13.506              
H              12.247              7.717               11.408              
H              9.495               8.319               11.09               
H              11.514              9.936               12.324              
H              10.135              11.555              12.674              
H              9.15                10.84               11.586              
H              8.965               10.535              13.179              
H              9.473               8.655               13.844              
H              10.591              7.658               13.19               
H              11.05               8.826               14.237              
N              11.422              10.264              9.362               
C              11.413              11.183              8.23                
C              10.897              10.488              6.975               
O              10.159              11.086              6.181               
C              12.817              11.747              7.993               
C              12.855              12.839              6.929               
C              14.268              13.368              6.732               
N              14.306              14.405              5.722               
C              15.43               15.024              5.37                
N              16.557              14.875              6.053               
N              15.41               15.859              4.329               
H              12.272              9.949               9.846               
H              10.804              11.956              8.443               
H              13.145              12.135              8.844               
H              13.405              11.007              7.694               
H              12.538              12.468              6.062               
H              12.276              13.597              7.213               
H              14.581              13.735              7.602               
H              14.843              12.605              6.452               
H              13.458              14.67               5.269               
H              16.579              14.266              6.848               
H              17.381              15.366              5.777               
H              14.566              15.997              3.814               
H              16.243              16.344              4.065               
N              11.261              9.217               6.789               
C              10.786              8.498               5.607               
C              9.288               8.244               5.687               
O              8.588               8.317               4.676               
C              11.544              7.183               5.438               
C              11.174              6.35                4.207               
C              11.51               7.112               2.936               
C              11.867              5.003               4.238               
H              11.867              8.816               7.507               
H              10.972              9.063               4.794               
H              12.515              7.394               5.371               
H              11.368              6.621               6.239               
H              10.195              6.156               4.23                
H              12.491              7.31                2.913               
H              11.265              6.559               2.139               
H              10.997              7.971               2.914               
H              11.591              4.5                 5.059               
H              11.613              4.474               3.426               
H              12.86               5.134               4.249               
N              8.778               7.964               6.888               
C              7.33                7.833               7.058               
C              6.615               9.111               6.646               
O              5.559               9.06                5.997               
C              7.012               7.491               8.518               
C              5.517               7.284               8.815               
C              5.306               7.01                10.282              
N              5.565               8.217               11.062              
C              5.901               8.225               12.349              
N              6.015               7.086               13.021              
N              6.117               9.381               12.955              
H              9.46                7.854               7.646               
H              7.004               7.078               6.477               
H              7.486               6.648               8.754               
H              7.333               8.237               9.093               
H              5.023               8.107               8.567               
H              5.191               6.506               8.294               
H              4.366               6.728               10.418              
H              5.935               6.298               10.563              
H              5.483               9.106               10.593              
H              5.871               6.208               12.571              
H              6.251               7.107               13.999              
H              6.048               10.24               12.445              
H              6.353               9.402               13.929              
N              7.168               10.264              7.027               
C              6.556               11.548              6.691               
C              6.645               11.826              5.194               
O              5.631               12.067              4.528               
C              7.233               12.668              7.49                
C              7.187               12.437              9.007               
C              8.051               13.403              9.806               
O              9.07                13.898              9.271               
O              7.71                13.662              10.984              
H              8.046               10.17               7.567               
H              5.589               11.546              6.975               
H              8.175               12.699              7.227               
H              6.755               13.501              7.306               
H              6.255               12.555              9.303               
H              7.516               11.525              9.186               
N              7.86                11.805              4.647               
C              8.036               12.178              3.248               
C              7.489               11.111              2.312               
O              6.914               11.433              1.261               
C              9.515               12.429              2.969               
C              10.105              13.544              3.8                 
C              11.558              13.802              3.44                
O              11.959              14.945              3.225               
N              12.354              12.74               3.384               
H              8.623               11.516              5.27                
H              7.516               13.027              3.086               
H              10.025              11.589              3.161               
H              9.623               12.666              2.001               
H              9.587               14.38               3.638               
H              10.058              13.293              4.763               
H              13.334              12.834              3.136               
H              11.964              11.822              3.596               
N              7.686               9.837               2.653               
C              7.155               8.764               1.831               
C              5.643               8.717               1.841               
O              5.019               8.382               0.827               
H              8.227               9.693               3.518               
H              7.481               8.88                0.876               
H              7.521               7.876               2.162               
N              5.03                9.066               2.972               
C              3.584               9.13                3.021               
C              3.014               10.097              2.003               
O              1.999               9.815               1.366               
H              5.651               9.274               3.764               
H              3.199               8.206               2.855               
H              3.29                9.412               3.95                
N              3.668               11.245              1.823               
C              3.194               12.203              0.833               
C              3.333               11.645              -0.582              
O              2.431               11.807              -1.41               
C              3.954               13.52               0.974               
H              4.493               11.383              2.416               
H              2.22                12.396              1.006               
H              3.307               14.259              1.156               
H              4.602               13.45               1.731               
H              4.449               13.71               0.127               
N              4.457               10.984              -0.869              
C              4.627               10.332              -2.167              
C              3.509               9.33                -2.41               
O              2.922               9.279               -3.495              
C              6.003               9.65                -2.248              
C              6.062               8.752               -3.477              
C              7.111               10.692              -2.263              
H              5.166               10.975              -0.122              
H              4.574               11.039              -2.88               
H              6.098               9.062               -1.454              
H              5.793               9.275               -4.285              
H              6.994               8.411               -3.596              
H              5.438               7.98                -3.356              
H              7.059               11.241              -1.429              
H              7.997               10.231              -2.308              
H              6.999               11.282              -3.062              
N              3.188               8.521               -1.397              
C              2.189               7.473               -1.582              
C              0.781               8.041               -1.724              
O              -0.043              7.465               -2.44               
C              2.235               6.485               -0.417              
C              3.434               5.537               -0.376              
C              3.43                4.781               0.939               
C              3.423               4.569               -1.548              
H              3.687               8.697               -0.516              
H              2.412               6.963               -2.426              
H              2.244               7.012               0.431               
H              1.413               5.923               -0.459              
H              4.271               6.07                -0.453              
H              2.584               4.252               1.021               
H              4.213               4.158               0.972               
H              3.49                5.429               1.7                 
H              3.456               5.082               -2.407              
H              4.219               3.964               -1.491              
H              2.586               4.02                -1.522              
N              0.494               9.156               -1.048              
C              -0.813              9.798               -1.165              
C              -1.076              10.243              -2.598              
O              -2.148              9.982               -3.158              
C              -0.884              10.986              -0.201              
C              -2.219              11.713              -0.161              
C              -2.202              12.85               0.875               
N              -1.398              12.529              2.053               
C              -0.24               13.115              2.353               
N              0.251               14.06               1.561               
N              0.432               12.755              3.441               
H              1.259               9.514               -0.451              
H              -1.524              9.137               -0.897              
H              -0.687              10.65               0.721               
H              -0.181              11.646              -0.469              
H              -2.41               12.115              -1.049              
H              -2.939              11.08               0.098               
H              -1.829              13.66               0.428               
H              -3.146              13.019              1.152               
H              -1.741              11.819              2.678               
H              -0.24               14.36               0.749               
H              1.138               14.484              1.786               
H              0.047               12.051              4.044               
H              1.306               13.179              3.657               
N              -0.096              10.915              -3.208              
C              -0.23               11.362              -4.587              
C              -0.293              10.175              -5.539              
O              -1.097              10.167              -6.479              
C              0.937               12.292              -4.941              
C              0.737               13.138              -6.189              
C              1.008               12.384              -7.483              
H              0.743               11.083              -2.625              
H              -1.097              11.867              -4.668              
H              1.097               12.913              -4.165              
H              1.764               11.731              -5.074              
H              -0.21               13.466              -6.207              
H              1.355               13.926              -6.146              
O              0.286               12.546              -8.468              
N              2.054               11.563              -7.49               
H              2.285               11.019              -8.312              
H              2.624               11.49               -6.647              
N              0.522               9.145               -5.291              
C              0.538               7.997               -6.19               
C              -0.756              7.201               -6.093              
O              -1.256              6.704               -7.106              
C              1.751               7.109               -5.901              
H              1.105               9.234               -4.452              
H              0.642               8.328               -7.137              
H              1.795               6.919               -4.922              
H              1.66                6.252               -6.405              
H              2.582               7.582               -6.189              
N              -1.322              7.065               -4.887              
C              -2.571              6.321               -4.803              
C              -3.686              7.054               -5.531              
O              -4.542              6.421               -6.161              
C              -2.968              6.062               -3.354              
C              -4.238              5.243               -3.283              
C              -4.726              5.068               -1.88               
N              -3.917              4.125               -1.11               
C              -4.043              2.803               -1.185              
N              -4.926              2.259               -2.018              
N              -3.278              2.027               -0.432              
H              -0.838              7.493               -4.11               
H              -2.442              5.42                -5.234              
H              -2.246              5.555               -2.919              
H              -3.131              6.927               -2.916              
H              -4.955              5.699               -3.817              
H              -4.068              4.336               -3.677              
H              -4.708              5.959               -1.42               
H              -5.671              4.734               -1.909              
H              -3.224              4.499               -0.486              
H              -5.489              2.828               -2.61               
H              -5.025              1.258               -2.051              
H              -2.594              2.437               0.176               
H              -3.378              1.033               -0.468              
N              -3.69               8.388               -5.466              
C              -4.706              9.148               -6.193              
C              -4.633              8.868               -7.687              
O              -5.668              8.751               -8.359              
C              -4.539              10.644              -5.921              
C              -5.085              11.099              -4.572              
C              -4.887              12.571              -4.375              
N              -5.406              13.015              -3.088              
C              -5.349              14.279              -2.681              
N              -4.639              15.191              -3.335              
N              -5.977              14.63               -1.56               
H              -2.955              8.807               -4.89               
H              -5.616              8.875               -5.857              
H              -3.567              10.86               -5.948              
H              -5.021              11.147              -6.632              
H              -6.061              10.897              -4.531              
H              -4.606              10.61               -3.846              
H              -3.911              12.77               -4.418              
H              -5.365              13.056              -5.104              
H              -5.824              12.339              -2.483              
H              -4.146              14.936              -4.168              
H              -4.597              16.131              -2.998              
H              -6.5                13.951              -1.046              
H              -5.926              15.574              -1.234              
N              -3.416              8.747               -8.226              
C              -3.266              8.385               -9.63               
C              -3.685              6.942               -9.877              
O              -4.27               6.634               -10.92              
C              -1.821              8.607               -10.085             
C              -1.374              10.05               -10.018             
C              -2.224              10.957              -10.89              
H              -2.632              8.925               -7.586              
H              -3.875              8.979               -10.171             
H              -1.216              8.062               -9.502              
H              -1.734              8.293               -11.033             
H              -1.441              10.367              -9.073              
H              -0.426              10.111              -10.327             
O              -3.102              11.665              -10.398             
N              -1.973              10.931              -12.194             
H              -2.511              11.501              -12.841             
H              -1.227              10.328              -12.539             
N              -3.394              6.044               -8.935              
C              -3.799              4.653               -9.096              
C              -5.317              4.507               -9.066              
O              -5.864              3.62                -9.727              
C              -3.166              3.789               -8.001              
H              -2.881              6.407               -8.122              
H              -3.463              4.317               -9.987              
H              -2.484              3.186               -8.41               
H              -2.73               4.38                -7.326              
H              -3.876              3.243               -7.561              
N              -6.002              5.366               -8.306              
C              -7.451              5.246               -8.162              
C              -8.161              5.536               -9.475              
O              -9.21               4.949               -9.763              
C              -7.951              6.185               -7.068              
C              -7.425              5.997               -5.653              
C              -7.941              6.939               -4.613              
O              -8.747              7.831               -4.844              
O              -7.449              6.723               -3.488              
H              -5.435              6.095               -7.847              
H              -7.683              4.315               -7.852              
H              -7.721              7.121               -7.347              
H              -8.949              6.095               -7.027              
H              -7.658              5.066               -5.366              
H              -6.428              6.092               -5.685              
N              -7.618              6.445               -10.276             
C              -8.188              6.723               -11.593             
C              -7.512              5.893               -12.684             
O              -7.135              6.401               -13.738             
C              -8.104              8.215               -11.894             
C              -6.756              8.846               -11.62              
C              -6.823              10.359              -11.76              
C              -5.486              11.025              -11.492             
N              -5.6                12.497              -11.64              
H              -6.784              6.924               -9.9                
H              -9.171              6.494               -11.578             
H              -8.325              8.351               -12.863             
H              -8.793              8.685               -11.335             
H              -6.47               8.622               -10.689             
H              -6.087              8.492               -12.271             
H              -7.11               10.583              -12.691             
H              -7.492              10.713              -11.108             
H              -5.195              10.807              -10.561             
H              -4.813              10.677              -12.143             
H              -5.612              12.924              -10.736             
H              -4.818              12.841              -12.16              
H              -6.446              12.719              -12.125             
N              -7.359              4.595               -12.429             
C              -6.888              3.656               -13.447             
C              -7.93               2.567               -13.696             
O              -8.023              1.595               -12.944             
C              -5.549              3.023               -13.045             
C              -4.331              3.867               -13.398             
S              -2.72               3.05                -13.206             
C              -1.649              4.428               -13.583             
O              -8.772              2.471               -14.591             
H              -7.6                4.311               -11.459             
H              -6.758              4.163               -14.304             
H              -5.55               2.866               -12.049             
H              -5.461              2.129               -13.504             
H              -4.448              4.21                -14.372             
H              -4.364              4.736               -12.829             
H              -1.237              4.299               -14.487             
H              -2.178              5.279               -13.581             
H              -0.923              4.49                -12.896             
H              15.6232             8.53878             10.456              
