278
2.xyz
C              12.707              -2.917              10.12               
O              12.096              -3.687              10.865              
N              12.201              -1.753              9.714               
C              10.883              -1.289              10.168              
C              9.71                -2.16               9.707               
O              8.662               -2.16               10.351              
C              10.639              0.16                9.742               
C              11.416              1.178               10.558              
C              11.012              2.593               10.175              
C              11.364              3.609               11.247              
N              10.488              4.81                11.143              
H              12.802              -1.215              9.066               
H              10.884              -1.265              11.188              
H              10.907              0.253               8.786               
H              9.665               0.353               9.841               
H              11.223              1.038               11.526              
H              12.391              1.062               10.385              
H              11.484              2.845               9.331               
H              10.024              2.617               10.026              
H              11.242              3.191               12.146              
H              12.317              3.887               11.133              
H              9.937               4.89                11.973              
H              11.056              5.625               11.037              
H              9.888               4.714               10.35               
N              9.876               -2.88               8.596               
C              8.853               -3.831              8.128               
C              9.127               -5.277              8.561               
O              8.456               -6.195              8.093               
C              8.641               -3.761              6.592               
C              8.189               -2.369              6.195               
C              9.882               -4.186              5.81                
H              10.769              -2.717              8.098               
H              7.965               -3.551              8.528               
H              7.905               -4.387              6.366               
H              8.974               -1.748              6.191               
H              7.783               -2.395              5.28                
H              7.509               -2.036              6.849               
H              10.399              -4.848              6.351               
H              9.599               -4.602              4.947               
H              10.446              -3.382              5.629               
N              10.094              -5.482              9.455               
C              10.428              -6.819              9.929               
C              11.039              -7.713              8.864               
O              10.853              -8.931              8.899               
H              10.578              -4.621              9.776               
H              11.076              -6.743              10.713              
H              9.586               -7.263              10.295              
N              11.763              -7.109              7.921               
C              12.511              -7.839              6.895               
C              13.98               -7.401              6.967               
O              14.552              -6.985              5.957               
C              11.936              -7.549              5.495               
C              10.459              -7.889              5.295               
C              9.876               -7.315              4.002               
H              11.751              -6.063              7.977               
H              12.473              -8.809              7.114               
H              12.058              -6.568              5.298               
H              12.469              -8.073              4.817               
H              10.36               -8.884              5.27                
H              9.938               -7.521              6.066               
O              10.586              -7.12               3.014               
N              8.575               -7.043              4.009               
H              8.124               -6.648              3.192               
H              8.038               -7.24               4.852               
N              14.606              -7.504              8.16                
C              15.9                -6.849              8.358               
C              17.014              -7.377              7.456               
O              17.131              -8.587              7.241               
C              16.218              -7.141              9.829               
C              15.518              -8.422              10.103              
C              14.235              -8.318              9.333               
H              15.807              -5.838              8.251               
H              17.207              -7.232              9.962               
H              15.874              -6.406              10.415              
H              16.064              -9.201              9.785               
H              15.339              -8.526              11.084              
H              13.905              -9.217              9.044               
H              13.521              -7.859              9.865               
N              17.802              -6.445              6.927               
C              18.991              -6.733              6.137               
C              20.157              -6.038              6.825               
O              19.972              -4.995              7.458               
C              18.836              -6.188              4.712               
C              17.569              -6.633              3.99                
C              17.639              -8.107              3.624               
C              16.421              -8.557              2.834               
N              15.225              -8.752              3.695               
H              17.485              -5.459              7.133               
H              19.154              -7.711              6.137               
H              18.834              -5.188              4.76                
H              19.625              -6.492              4.176               
H              16.785              -6.485              4.589               
H              17.464              -6.096              3.156               
H              18.453              -8.262              3.069               
H              17.691              -8.646              4.462               
H              16.214              -7.864              2.134               
H              16.637              -9.423              2.369               
H              15.516              -8.89               4.642               
H              14.64               -7.943              3.64                
H              14.717              -9.554              3.381               
N              21.352              -6.609              6.705               
C              22.556              -5.951              7.212               
C              22.869              -4.774              6.296               
O              22.561              -4.819              5.101               
C              23.773              -6.897              7.248               
O              24.083              -7.349              5.923               
C              23.502              -8.1                8.144               
H              21.356              -7.53               6.237               
H              22.367              -5.601              8.124               
H              24.579              -6.381              7.605               
H              24.023              -8.891              7.816               
H              23.778              -7.891              9.084               
H              22.524              -8.32               8.129               
H              23.284              -7.799              5.512               
N              23.468              -3.72               6.849               
C              23.929              -2.606              6.019               
C              24.983              -3.072              5.006               
O              25.038              -2.551              3.889               
C              24.469              -1.452              6.873               
C              24.82               -0.168              6.108               
C              23.602              0.438               5.419               
C              25.457              0.852               7.035               
H              23.574              -3.757              7.872               
H              23.144              -2.239              5.509               
H              23.774              -1.216              7.542               
H              25.297              -1.765              7.322               
H              25.518              -0.384              5.419               
H              22.909              0.662               6.104               
H              23.873              1.269               4.934               
H              23.226              -0.221              4.768               
H              26.296              0.472               7.428               
H              25.679              1.682               6.52                
H              24.82               1.08                7.773               
N              25.802              -4.055              5.39                
C              26.757              -4.679              4.463               
C              26.089              -5.262              3.214               
O              26.575              -5.03               2.104               
C              27.593              -5.769              5.162               
C              28.882              -5.234              5.77                
H              25.708              -4.336              6.384               
H              27.383              -3.948              4.148               
H              27.04               -6.167              5.888               
H              27.824              -6.464              4.487               
O              29.061              -4.025              5.95                
N              29.793              -6.144              6.091               
H              29.618              -7.114              5.926               
H              30.663              -5.859              6.501               
N              24.99               -6.005              3.382               
C              24.283              -6.571              2.22                
C              23.761              -5.469              1.304               
O              23.88               -5.568              0.083               
C              23.12               -7.494              2.617               
C              22.436              -8.121              1.393               
C              21.241              -9.002              1.708               
O              21                  -9.315              2.892               
O              20.535              -9.387              0.747               
H              24.692              -6.142              4.355               
H              24.91               -7.168              1.708               
H              23.484              -8.221              3.153               
H              22.454              -6.956              3.081               
H              22.121              -7.383              0.813               
H              23.106              -8.68               0.925               
N              23.182              -4.432              1.899               
C              22.646              -3.3                1.139               
C              23.757              -2.584              0.365               
O              23.581              -2.259              -0.81               
C              21.865              -2.34               2.063               
C              20.575              -3.031              2.515               
C              21.513              -1.033              1.358               
C              19.955              -2.431              3.744               
H              23.141              -4.49               2.936               
H              22.026              -3.69               0.453               
H              22.419              -2.169              2.862               
H              19.918              -2.99               1.76                
H              20.787              -3.994              2.694               
H              21.017              -0.439              1.989               
H              22.351              -0.58               1.062               
H              20.941              -1.228              0.564               
H              19.728              -1.471              3.573               
H              19.12               -2.931              3.979               
H              20.599              -2.487              4.508               
N              24.896              -2.356              1.018               
C              26.056              -1.749              0.357               
C              26.636              -2.63               -0.757              
O              27.057              -2.111              -1.793              
C              27.149              -1.412              1.375               
C              26.832              -0.234              2.282               
C              27.924              -0.078              3.332               
C              27.745              1.163               4.195               
N              28.649              1.127               5.382               
H              24.892              -2.639              2.015               
H              25.772              -0.865              -0.049              
H              27.299              -2.219              1.948               
H              27.989              -1.204              0.871               
H              26.788              0.596               1.737               
H              25.965              -0.396              2.74                
H              27.914              -0.882              3.927               
H              28.809              -0.017              2.87                
H              27.954              1.973               3.647               
H              26.796              1.209               4.507               
H              29.055              2.03                5.515               
H              28.121              0.873               6.191               
H              29.37               0.454               5.226               
N              26.668              -3.947              -0.539              
C              27.111              -4.897              -1.575              
C              26.254              -4.809              -2.835              
O              26.779              -4.816              -3.951              
C              27.078              -6.346              -1.069              
C              28.253              -6.767              -0.199              
C              28.453              -8.279              -0.243              
N              27.204              -9.026              -0.054              
C              26.665              -9.366              1.122               
N              25.522              -10.05              1.144               
N              27.243              -9.034              2.278               
H              26.36               -4.241              0.406               
H              28.067              -4.681              -1.817              
H              26.238              -6.468              -0.536              
H              27.051              -6.952              -1.867              
H              29.085              -6.336              -0.53               
H              28.079              -6.507              0.744               
H              28.843              -8.513              -1.132              
H              29.095              -8.526              0.482               
H              26.703              -9.311              -0.89               
H              25.069              -10.332             0.307               
H              25.108              -10.288             2.034               
H              28.116              -8.532              2.242               
H              26.828              -9.275              3.139               
N              24.94               -4.739              -2.643              
C              23.99               -4.621              -3.753              
C              24.247              -3.343              -4.553              
O              24.242              -3.365              -5.786              
C              22.527              -4.665              -3.243              
C              22.2                -6.07               -2.72               
C              21.536              -4.282              -4.344              
C              20.98               -6.143              -1.828              
H              24.644              -4.775              -1.645              
H              24.182              -5.388              -4.37               
H              22.45               -4.029              -2.488              
H              22.064              -6.674              -3.508              
H              22.995              -6.402              -2.206              
H              20.611              -4.291              -3.972              
H              21.753              -3.369              -4.68               
H              21.604              -4.939              -5.091              
H              20.179              -5.829              -2.336              
H              20.841              -7.088              -1.534              
H              21.119              -5.561              -1.028              
N              24.491              -2.244              -3.842              
C              24.657              -0.929              -4.466              
C              26.067              -0.629              -4.988              
O              26.265              0.394               -5.647              
C              24.234              0.165               -3.48               
C              22.762              0.137               -3.061              
C              22.527              1.123               -1.928              
C              21.851              0.445               -4.243              
H              24.553              -2.397              -2.814              
H              24.009              -0.866              -5.254              
H              24.779              0.061               -2.657              
H              24.406              1.043               -3.907              
H              22.53               -0.783              -2.755              
H              22.765              2.046               -2.232              
H              21.564              1.1                 -1.658              
H              23.097              0.875               -1.144              
H              21.993              -0.238              -4.96               
H              20.897              0.421               -3.944              
H              22.065              1.354               -4.601              
N              27.036              -1.503              -4.713              
C              28.431              -1.248              -5.085              
C              28.688              -1.503              -6.569              
O              28.018              -2.315              -7.207              
C              29.373              -2.108              -4.24               
O              29.122              -3.49               -4.438              
O              29.58               -0.899              -7.163              
H              26.724              -2.361              -4.223              
H              28.628              -0.275              -4.899              
H              30.313              -1.908              -4.503              
H              29.232              -1.888              -3.279              
H              28.177              -3.695              -4.189              
H              13.6786             -3.18223            9.76054             
