289
5.xyz
C              -3.665              4.647               10.545              
O              -2.894              5.609               10.595              
N              -3.595              3.73                9.577               
C              -2.657              3.911               8.473               
C              -2.956              5.212               7.74                
O              -2.046              5.985               7.422               
C              -2.703              2.711               7.516               
C              -1.851              2.99                6.301               
C              -2.217              1.452               8.225               
H              -4.227              2.93                9.676               
H              -1.732              3.976               8.856               
H              -3.641              2.611               7.202               
H              -1.518              3.935               6.329               
H              -1.067              2.366               6.285               
H              -2.392              2.858               5.468               
H              -2.115              0.717               7.556               
H              -1.336              1.638               8.659               
H              -2.886              1.187               8.919               
N              -4.239              5.487               7.48                
C              -4.565              6.698               6.736               
C              -4.431              7.94                7.597               
O              -4.186              9.032               7.069               
C              -5.96               6.582               6.113               
C              -5.831              5.787               4.854               
C              -5.971              4.442               4.726               
C              -5.421              6.274               3.567               
N              -5.711              4.058               3.427               
C              -5.368              5.167               2.698               
C              -5.114              7.54                3.064               
C              -5.019              5.287               1.353               
C              -4.768              7.659               1.727               
C              -4.712              6.538               0.891               
H              -4.92               4.814               7.828               
H              -3.903              6.778               5.977               
H              -6.538              6.092               6.717               
H              -6.276              7.467               5.876               
H              -6.225              3.814               5.46                
H              -5.764              3.126               3.076               
H              -5.142              8.347               3.649               
H              -4.998              4.477               0.761               
H              -4.556              8.56                1.36                
H              -4.441              6.664               -0.065              
N              -4.595              7.808               8.912               
C              -4.256              8.922               9.791               
C              -2.786              9.283               9.63                
O              -2.43               10.46               9.495               
C              -4.569              8.566               11.245              
C              -4.131              9.576               12.312              
C              -4.808              10.929              12.112              
C              -4.416              9.025               13.72               
H              -4.959              6.907               9.23                
H              -4.809              9.717               9.53                
H              -5.559              8.459               11.328              
H              -4.117              7.701               11.453              
H              -3.137              9.693               12.259              
H              -5.8                10.816              12.17               
H              -4.501              11.562              12.822              
H              -4.565              11.292              11.213              
H              -3.91               8.174               13.846              
H              -4.124              9.696               14.398              
H              -5.395              8.854               13.811              
N              -1.916              8.269               9.615               
C              -0.493              8.517               9.402               
C              -0.251              9.218               8.068               
O              0.51                10.196              7.993               
C              0.284               7.193               9.466               
C              1.8                 7.344               9.264               
S              2.628               5.73                9.26                
C              1.908               5.015               7.789               
H              -2.325              7.336               9.761               
H              -0.167              9.125               10.135              
H              0.129               6.765               10.364              
H              -0.066              6.573               8.754               
H              1.96                7.834               8.388               
H              2.166               7.935               10.005              
H              1.242               5.651               7.395               
H              2.627               4.831               7.116               
H              1.447               4.157               8.022               
N              -0.891              8.734               7.001               
C              -0.724              9.365               5.691               
C              -1.26               10.792              5.699               
O              -0.605              11.719              5.213               
C              -1.438              8.577               4.597               
C              -0.865              7.195               4.33                
C              0.446               6.877               4.642               
C              -1.655              6.236               3.729               
C              0.947               5.594               4.381               
C              -1.169              4.972               3.463               
C              0.128               4.644               3.787               
H              -1.485              7.915               7.175               
H              0.265               9.426               5.521               
H              -2.384              8.459               4.869               
H              -1.374              9.093               3.753               
H              1.044               7.553               5.054               
H              -2.604              6.462               3.481               
H              1.895               5.377               4.626               
H              -1.778              4.284               3.023               
H              0.486               3.73                3.6                 
N              -2.473              10.98               6.219               
C              -3.086              12.304              6.165               
C              -2.294              13.311              6.978               
O              -2.201              14.482              6.6                 
C              -4.525              12.258              6.668               
C              -5.47               11.616              5.677               
H              -2.911              10.155              6.637               
H              -3.054              12.606              5.204               
H              -4.547              11.733              7.515               
H              -4.829              13.193              6.84                
O              -6.373              10.88               6.061               
N              -5.273              11.899              4.405               
H              -4.522              12.508              4.134               
H              -5.869              11.509              3.7                 
N              -1.732              12.879              8.11                
C              -0.878              13.776              8.883               
C              0.303               14.256              8.051               
O              0.642               15.445              8.07                
C              -0.363              13.074              10.139              
C              -1.439              12.871              11.19               
H              -1.945              11.912              8.371               
H              -1.428              14.587              9.11                
H              -0.004              12.181              9.877               
H              0.366               13.63               10.534              
O              -2.545              13.409              11.091              
N              -1.097              12.121              12.227              
H              -0.179              11.73               12.292              
H              -1.763              11.941              12.957              
N              0.95                13.338              7.323               
C              2.132               13.721              6.557               
C              1.764               14.604              5.374               
O              2.484               15.561              5.059               
C              2.884               12.482              6.076               
H              0.558               12.393              7.353               
H              2.756               14.235              7.161               
H              3.107               12.584              5.108               
H              3.726               12.379              6.604               
H              2.309               11.675              6.203               
N              0.65                14.307              4.7                 
C              0.215               15.195              3.616               
C              -0.211              16.555              4.146               
O              -0.103              17.564              3.439               
C              -0.929              14.548              2.836               
C              -0.492              13.383              1.979               
C              0.671               13.265              1.271               
C              -1.229              12.18               1.741               
N              0.698               12.063              0.602               
C              -0.459              11.38               0.875               
C              -2.468              11.707              2.176               
C              -0.884              10.122              0.445               
C              -2.893              10.461              1.743               
C              -2.099              9.683               0.893               
H              0.161               13.462              4.988               
H              1.005               15.337              3.006               
H              -1.603              14.201              3.475               
H              -1.33               15.221              2.228               
H              1.397               13.949              1.241               
H              1.437               11.74               0.015               
H              -3.04               12.248              2.787               
H              -0.308              9.576               -0.169              
H              -3.778              10.119              2.044               
H              -2.438              8.782               0.611               
N              -0.694              16.609              5.383               
C              -1.117              17.886              5.94                
C              0.074               18.737              6.358               
O              0.111               19.945              6.085               
C              -2.037              17.647              7.132               
C              -2.39               18.902              7.921               
C              -3.153              19.839              7                   
C              -3.194              18.553              9.161               
H              -0.739              15.715              5.883               
H              -1.635              18.389              5.234               
H              -2.884              17.26               6.793               
H              -1.582              17.023              7.751               
H              -1.557              19.342              8.225               
H              -3.987              19.389              6.679               
H              -3.397              20.673              7.497               
H              -2.581              20.076              6.214               
H              -2.658              17.945              9.749               
H              -3.416              19.39               9.665               
H              -4.042              18.093              8.893               
N              1.055               18.131              7.025               
C              2.141               18.923              7.586               
C              3.192               19.299              6.54                
O              3.767               20.395              6.598               
C              2.805               18.171              8.746               
C              3.963               18.98               9.278               
C              3.737               20.052              10.134              
C              5.274               18.714              8.881               
C              4.781               20.831              10.592              
C              6.327               19.484              9.346               
C              6.07                20.542              10.202              
O              7.095               21.329              10.663              
H              0.978               17.113              7.102               
H              1.751               19.781              7.956               
H              2.145               18.059              9.461               
H              3.148               17.319              8.406               
H              2.8                 20.263              10.423              
H              5.452               17.959              8.255               
H              4.601               21.604              11.208              
H              7.264               19.28               9.067               
H              6.723               22.04               11.257              
N              3.475               18.409              5.593               
C              4.612               18.557              4.696               
C              4.196               19.131              3.347               
O              3.093               18.877              2.862               
C              5.288               17.2                4.505               
C              5.808               16.642              5.802               
H              2.815               17.601              5.55                
H              5.241               19.224              5.118               
H              4.619               16.568              4.127               
H              6.049               17.316              3.875               
O              6.91                16.99               6.237               
N              5.009               15.786              6.451               
H              4.121               15.55               6.057               
H              5.3                 15.391              7.316               
N              5.093               19.919              2.749               
C              4.807               20.524              1.455               
C              4.722               19.455              0.375               
O              5.373               18.414              0.459               
C              5.884               21.541              1.087               
C              6.054               22.663              2.097               
C              6.648               23.908              1.437               
N              5.653               24.632              0.651               
C              4.866               25.586              1.143               
N              4.96                25.936              2.42                
N              3.984               26.189              0.359               
H              5.973               20.054              3.269               
H              3.923               21.001              1.507               
H              6.754               21.061              1.01                
H              5.642               21.949              0.21                
H              5.17                22.909              2.477               
H              6.674               22.374              2.818               
H              6.996               24.499              2.157               
H              7.39                23.613              0.843               
H              5.556               24.396              -0.321              
H              5.628               25.51               3.023               
H              4.346               26.646              2.787               
H              3.928               25.936              -0.611              
H              3.379               26.892              0.727               
N              3.925               19.731              -0.661              
C              3.737               18.766              -1.739              
C              5.042               18.383              -2.428              
O              5.115               17.308              -3.029              
C              2.749               19.313              -2.771              
C              1.315               19.367              -2.278              
C              0.875               20.785              -1.967              
C              -0.556              20.81               -1.447              
N              -0.674              20.187              -0.098              
H              3.471               20.657              -0.629              
H              3.317               17.925              -1.354              
H              3.034               20.237              -3.015              
H              2.784               18.725              -3.577              
H              0.712               18.988              -2.984              
H              1.233               18.812              -1.447              
H              1.471               21.163              -1.269              
H              0.918               21.328              -2.797              
H              -0.867              21.764              -1.397              
H              -1.145              20.313              -2.091              
H              -0.677              19.192              -0.193              
H              0.102               20.469              0.465               
H              -1.526              20.486              0.331               
N              6.071               19.219              -2.345              
C              7.338               18.961              -3.013              
C              8.389               18.366              -2.086              
O              9.532               18.174              -2.509              
C              7.869               20.25               -3.638              
O              7.832               21.302              -2.661              
C              7.014               20.636              -4.833              
H              5.893               20.068              -1.765              
H              7.174               18.303              -3.769              
H              8.841               20.112              -3.915              
H              6.05                20.437              -4.641              
H              7.115               21.616              -5.022              
H              7.301               20.115              -5.641              
H              7.133               21.107              -1.966              
N              8.028               18.051              -0.849              
C              8.999               17.642              0.152               
C              9.277               16.142              0.086               
O              8.49                15.358              -0.448              
C              8.494               17.994              1.547               
O              7.364               17.185              1.856               
H              7.006               18.121              -0.662              
H              9.867               18.123              -0.035              
H              9.208               17.813              2.206               
H              8.222               18.944              1.562               
H              6.554               17.568              1.416               
N              10.414              15.754              0.672               
H              11.018              16.531              1.001               
H              10.652              14.7749             0.778163            
H              -4.40766            4.51578             11.2953             
