191
5.xyz
C              13.681              6.763               24.578              
O              13.584              7.524               23.607              
N              14.73               6.788               25.394              
C              15.788              7.788               25.249              
C              16.892              7.281               24.317              
O              18.061              7.17                24.682              
C              16.344              8.162               26.617              
C              17.357              9.282               26.546              
O              17.33               10.045              25.556              
O              18.18               9.394               27.48               
H              14.734              6.054               26.126              
H              15.379              8.593               24.807              
H              15.585              8.453               27.19               
H              16.782              7.358               27.003              
N              16.498              6.966               23.083              
C              17.444              6.524               22.07               
C              17.129              7.212               20.749              
O              16.002              7.651               20.501              
C              17.428              4.999               21.874              
O              16.17               4.603               21.323              
C              17.67               4.263               23.201              
H              15.478              7.063               22.915              
H              18.367              6.791               22.353              
H              18.161              4.745               21.212              
H              17.26               4.784               23.95               
H              17.253              3.355               23.158              
H              18.654              4.172               23.356              
H              15.518              4.385               22.057              
N              18.162              7.313               19.906              
C              17.982              7.848               18.56               
C              16.983              7.003               17.781              
O              16.157              7.533               17.027              
C              19.339              7.931               17.834              
C              20.13               9.145               18.324              
C              19.148              7.988               16.325              
C              21.622              8.961               18.241              
H              19.066              6.989               20.282              
H              17.567              8.755               18.67               
H              19.857              7.114               18.059              
H              19.865              9.935               17.774              
H              19.877              9.317               19.275              
H              20.04               7.995               15.876              
H              18.63               7.189               16.024              
H              18.648              8.818               16.083              
H              21.887              8.795               17.291              
H              22.08               9.785               18.574              
H              21.895              8.18                18.803              
N              17.051              5.678               17.939              
C              16.153              4.8                 17.195              
C              14.701              5.092               17.554              
O              13.852              5.313               16.675              
C              16.478              3.334               17.493              
C              17.748              2.838               16.859              
C              18.116              3.25                15.585              
C              18.554              1.938               17.527              
C              19.288              2.78                15.008              
C              19.716              1.465               16.955              
C              20.083              1.881               15.697              
H              17.763              5.349               18.604              
H              16.262              5.025               16.222              
H              16.568              3.238               18.475              
H              15.729              2.783               17.15               
H              17.542              3.884               15.081              
H              18.29               1.624               18.444              
H              19.551              3.097               14.089              
H              20.296              0.807               17.469              
H              20.924              1.538               15.273              
N              14.404              5.094               18.853              
C              13.044              5.363               19.305              
C              12.567              6.722               18.82               
O              11.453              6.851               18.297              
C              12.973              5.287               20.83               
C              11.554              5.302               21.378              
C              10.846              6.496               21.502              
C              10.952              4.13                21.809              
C              9.555               6.519               22.022              
C              9.646               4.138               22.319              
C              8.966               5.338               22.426              
O              7.68                5.374               22.934              
H              15.194              4.895               19.485              
H              12.437              4.659               18.916              
H              13.408              4.441               21.124              
H              13.456              6.071               21.208              
H              11.272              7.355               21.213              
H              11.446              3.267               21.758              
H              9.062               7.385               22.099              
H              9.218               3.284               22.6                
H              7.36                4.44                23.072              
N              13.391              7.755               19.008              
C              13.015              9.091               18.55               
C              12.808              9.124               17.04               
O              11.899              9.805               16.546              
C              14.069              10.11               18.976              
C              14.07               10.366              20.495              
C              14.798              11.658              20.835              
N              16.247              11.486              20.8                
C              16.963              11.02               21.818              
N              16.36               10.672              22.945              
N              18.279              10.897              21.709              
H              14.275              7.535               19.483              
H              12.152              9.356               18.999              
H              14.962              9.765               18.73               
H              13.879              10.97               18.528              
H              13.132              10.44               20.812              
H              14.534              9.615               20.949              
H              14.531              12.347              20.169              
H              14.52               11.936              21.75               
H              16.732              11.735              19.956              
H              15.371              10.731              23.046              
H              16.913              10.337              23.721              
H              18.727              11.141              20.844              
H              18.82               10.565              22.476              
N              13.636              8.392               16.291              
C              13.486              8.359               14.839              
C              12.188              7.675               14.422              
O              11.559              8.075               13.434              
C              14.691              7.659               14.204              
H              14.359              7.875               16.809              
H              13.474              9.308               14.493              
H              14.427              7.292               13.314              
H              15.432              8.318               14.089              
H              14.991              6.916               14.799              
N              11.765              6.643               15.159              
C              10.506              5.985               14.826              
C              9.319               6.908               15.077              
O              8.331               6.879               14.331              
C              10.362              4.69                15.631              
H              12.374              6.373               15.936              
H              10.518              5.737               13.849              
H              11.223              4.186               15.601              
H              10.136              4.914               16.577              
H              9.634               4.135               15.234              
N              9.378               7.704               16.15               
C              8.347               8.712               16.39               
C              8.3                 9.694               15.228              
O              7.229               10.042              14.726              
C              8.607               9.44                17.718              
C              7.633               10.607              17.883              
C              8.526               8.458               18.885              
H              10.187              7.547               16.769              
H              7.46                8.246               16.44               
H              9.52                9.831               17.679              
H              8.141               11.428              18.139              
H              7.156               10.764              17.02               
H              6.971               10.386              18.597              
H              8.705               7.534               18.549              
H              9.209               8.707               19.57               
H              7.612               8.501               19.287              
N              9.468               10.16               14.794              
C              9.535               11.086              13.669              
C              9.002               10.446              12.395              
O              8.291               11.089              11.611              
C              10.98               11.546              13.475              
C              11.139              12.718              12.523              
C              12.453              13.418              12.812              
N              12.669              13.533              14.253              
C              13.707              13.017              14.904              
N              14.644              12.338              14.248              
N              13.805              13.18               16.218              
H              10.296              9.818               15.308              
H              8.974               11.897              13.882              
H              11.342              11.817              14.363              
H              11.505              10.78               13.113              
H              11.158              12.39               11.592              
H              10.405              13.363              12.665              
H              13.185              12.883              12.412              
H              12.417              14.324              12.412              
H              11.982              14.039              14.791              
H              14.594              12.223              13.26               
H              15.413              11.937              14.756              
H              13.108              13.707              16.709              
H              14.572              12.78               16.718              
N              9.333               9.176               12.169              
C              8.827               8.499               10.983              
C              9.538               7.161               10.793              
C              9.034               6.356               9.592               
C              9.366               7.088               8.299               
C              9.569               4.938               9.597               
H              9.943               8.743               12.869              
H              9.016               9.074               10.18               
H              10.497              7.341               10.647              
H              9.387               6.615               11.6                
H              8.046               6.246               9.667               
H              10.357              7.203               8.225               
H              9.034               6.556               7.519               
H              8.926               7.986               8.301               
H              9.275               4.469               10.432              
H              9.22                4.442               8.8                 
H              10.57               4.955               9.563               
H              7.74838             8.35179             11.057              
H              12.9237             6.04617             24.7769             
