324
2.xyz
C              30.112              82.429              40.73               
C              31.15               83.524              40.468              
O              31.496              84.286              41.379              
C              29.24               82.789              41.911              
H              29.549              82.319              39.912              
H              29.73               82.603              42.764              
H              29.003              83.761              41.874              
H              28.399              82.245              41.891              
N              31.715              83.562              39.223              
C              32.887              84.439              38.963              
C              32.679              85.936              39.192              
O              33.648              86.622              39.49               
C              33.209              84.173              37.481              
C              32.708              82.79               37.227              
C              31.49               82.617              38.098              
H              33.694              84.102              39.505              
H              32.741              84.84               36.897              
H              34.196              84.235              37.321              
H              32.47               82.673              36.254              
H              33.414              82.11               37.462              
H              30.651              82.856              37.609              
H              31.414              81.68               38.444              
N              31.447              86.453              39.048              
C              31.202              87.886              39.261              
C              30.498              88.135              40.592              
O              30.033              89.244              40.823              
C              30.387              88.483              38.093              
C              28.927              88.068              38.04               
O              28.613              86.941              38.483              
O              28.101              88.864              37.523              
H              30.717              85.778              38.784              
H              32.102              88.334              39.313              
H              30.435              89.482              38.172              
H              30.833              88.202              37.24               
N              30.476              87.136              41.506              
C              29.805              87.304              42.81               
C              30.362              88.502              43.588              
O              29.59               89.333              44.057              
C              29.935              86.035              43.647              
C              29.215              86.096              44.968              
C              27.875              85.74               45.07               
C              29.898              86.379              46.14               
C              27.235              85.682              46.305              
C              29.245              86.421              47.367              
C              27.911              86.067              47.446              
O              27.28               86.071              48.663              
H              30.957              86.274              41.215              
H              28.826              87.471              42.637              
H              29.561              85.273              43.12               
H              30.905              85.877              43.826              
H              27.356              85.521              44.241              
H              30.883              86.556              46.107              
H              26.287              85.36               46.362              
H              29.74               86.707              48.188              
H              27.018              87.007              48.896              
N              31.684              88.63               43.648              
C              32.316              89.676              44.429              
C              32.416              91.027              43.66               
O              32.762              92.027              44.269              
C              33.671              89.205              44.923              
C              33.513              88.084              45.931              
C              32.874              88.302              47.15               
C              33.874              86.777              45.613              
C              32.677              87.261              48.059              
C              33.685              85.73               46.519              
C              33.1                85.981              47.748              
O              32.877              84.971              48.665              
H              32.213              87.925              43.094              
H              31.761              89.847              45.258              
H              34.187              88.861              44.159              
H              34.126              89.956              45.369              
H              32.549              89.22               47.382              
H              34.275              86.58               44.72               
H              32.227              87.445              48.936              
H              33.973              84.804              46.276              
H              32.945              84.091              48.201              
N              31.987              91.083              42.389              
C              31.784              92.367              41.706              
C              30.449              92.98               42.178              
O              30.301              94.184              42.175              
C              31.721              92.19               40.181              
C              33.016              91.729              39.577              
O              34.073              92.033              40.152              
O              32.974              91.09               38.511              
H              31.817              90.165              41.947              
H              32.506              92.983              42.009              
H              31.01               91.517              39.986              
H              31.47               93.071              39.786              
N              29.493              92.131              42.568              
C              28.145              92.53               42.981              
C              28.038              92.642              44.51               
O              27.375              93.541              45.008              
C              27.138              91.48               42.436              
C              27.219              91.384              40.867              
C              25.704              91.803              42.882              
C              26.913              92.693              40.115              
H              29.8                91.12               42.553              
H              28.001              93.455              42.618              
H              27.389              90.592              42.796              
H              28.139              91.082              40.629              
H              26.565              90.688              40.576              
H              25.094              91.081              42.567              
H              25.676              91.859              43.876              
H              25.428              92.675              42.487              
H              27.57               93.384              40.399              
H              26.991              92.524              39.138              
H              25.989              92.981              40.342              
N              28.606              91.675              45.237              
C              28.53               91.615              46.703              
C              29.814              92.175              47.307              
O              30.852              91.521              47.286              
C              28.269              90.149              47.146              
C              27.001              89.579              46.431              
C              28.121              90.046              48.68               
C              25.765              90.408              46.573              
H              29.115              90.957              44.669              
H              27.793              92.235              46.968              
H              29.041              89.599              46.863              
H              27.231              89.473              45.46               
H              26.838              88.664              46.811              
H              28.007              89.09               48.929              
H              28.94               90.415              49.108              
H              27.323              90.569              48.963              
H              25.92               91.32               46.187              
H              25.005              89.972              46.087              
H              25.526              90.499              47.542              
N              29.722              93.35               47.889              
C              30.872              94.059              48.449              
C              31.162              93.687              49.897              
O              32.301              93.873              50.336              
C              30.649              95.572              48.364              
C              30.341              96.09               46.95               
C              31.398              95.704              45.904              
C              31.188              96.443              44.596              
N              32.229              96.043              43.613              
H              28.749              93.746              47.922              
H              31.691              93.84               47.888              
H              29.88               95.811              48.953              
H              31.475              96.03               48.686              
H              29.451              95.72               46.657              
H              30.273              97.094              46.981              
H              32.295              95.935              46.265              
H              31.332              94.726              45.736              
H              30.288              96.216              44.234              
H              31.251              97.424              44.761              
H              32.732              95.253              43.965              
H              31.793              95.802              42.746              
H              32.861              96.804              43.47               
N              30.14               93.247              50.673              
C              30.328              92.87               52.08               
C              29.778              91.497              52.288              
O              28.658              91.315              52.801              
C              29.638              93.867              52.986              
C              30.238              95.261              52.887              
C              29.485              96.331              53.648              
O              29.848              97.519              53.501              
O              28.491              95.995              54.333              
H              29.226              93.203              50.184              
H              31.304              92.894              52.298              
H              28.699              93.931              52.713              
H              29.745              93.566              53.912              
H              31.159              95.226              53.253              
H              30.248              95.526              51.932              
N              30.488              90.49               51.778              
C              29.966              89.129              51.872              
C              29.984              88.59               53.287              
O              30.797              89.017              54.101              
C              30.917              88.341              50.992              
C              32.224              89.097              51.11               
C              31.8                90.524              51.105              
H              29.029              89.08               51.48               
H              31.028              87.405              51.322              
H              30.609              88.327              50.042              
H              32.683              88.851              51.96               
H              32.81               88.883              50.333              
H              32.436              91.105              51.615              
H              31.703              90.883              50.174              
N              29.108              87.616              53.569              
C              29.114              86.936              54.852              
C              28.425              85.581              54.716              
O              27.833              85.275              53.681              
C              28.473              87.803              55.96               
O              28.581              87.1                57.204              
C              27.036              88.128              55.686              
H              28.443              87.401              52.802              
H              30.064              86.778              55.13               
H              28.994              88.671              56.037              
H              26.434              87.437              56.102              
H              26.8                89.029              56.068              
H              26.863              88.147              54.695              
H              28.917              87.715              57.925              
N              28.528              84.769              55.768              
C              27.958              83.453              55.797              
C              27.839              83.038              57.253              
O              28.303              83.776              58.124              
C              28.813              82.493              54.978              
C              30.226              82.371              55.48               
O              30.434              81.664              56.475              
O              31.098              83.097              54.965              
H              29.065              85.187              56.569              
H              27.03               83.512              55.436              
H              28.38               81.594              55.009              
H              28.831              82.825              54.037              
N              27.258              81.858              57.526              
C              26.964              81.43               58.905              
C              28.245              81.202              59.712              
O              28.336              81.683              60.837              
C              26.066              80.161              58.883              
C              24.649              80.545              58.33               
C              25.97               79.503              60.311              
C              23.61               79.364              58.252              
H              27.037              81.282              56.692              
H              26.484              82.2                59.338              
H              26.461              79.515              58.256              
H              24.265              81.253              58.915              
H              24.763              80.909              57.409              
H              25.418              78.685              60.235              
H              26.888              79.282              60.61               
H              25.548              80.157              60.923              
H              23.485              79.013              59.168              
H              22.765              79.731              57.891              
H              23.985              78.673              57.652              
N              29.235              80.519              59.131              
C              30.48               80.171              59.813              
C              31.276              81.421              60.146              
O              31.851              81.508              61.229              
C              31.313              79.211              58.924              
C              32.705              78.837              59.447              
C              33.504              78.064              58.388              
C              32.579              77.993              60.721              
H              29.04               80.252              58.135              
H              30.252              79.698              60.671              
H              30.792              78.369              58.827              
H              31.431              79.651              58.041              
H              33.21               79.67               59.654              
H              32.069              77.16               60.515              
H              33.491              77.757              61.051              
H              32.095              78.52               61.418              
H              33.608              78.634              57.575              
H              34.403              77.836              58.758              
H              33.013              77.227              58.153              
N              31.302              82.393              59.226              
C              31.932              83.692              59.474              
C              31.261              84.405              60.646              
O              31.945              84.983              61.479              
C              31.855              84.55               58.227              
O              32.622              83.916              57.225              
C              32.346              85.958              58.454              
H              30.839              82.146              58.327              
H              32.898              83.538              59.708              
H              30.888              84.597              57.913              
H              33.317              85.949              58.711              
H              32.239              86.502              57.616              
H              31.821              86.394              59.191              
H              32.041              83.642              56.446              
N              29.937              84.396              60.691              
C              29.225              85.075              61.769              
C              29.439              84.355              63.101              
O              29.476              84.997              64.143              
C              27.739              85.171              61.461              
C              27.407              86.238              60.455              
S              25.61               86.47               60.302              
C              25.207              85.152              59.209              
H              29.469              83.886              59.926              
H              29.599              86.004              61.857              
H              27.42               84.282              61.107              
H              27.24               85.365              62.316              
H              27.852              87.113              60.732              
H              27.807              85.987              59.551              
H              25.892              84.417              59.276              
H              24.305              84.769              59.438              
H              25.183              85.479              58.257              
N              29.536              83.026              63.074              
C              29.751              82.251              64.297              
C              31.125              82.526              64.863              
O              31.27               82.676              66.074              
C              29.582              80.745              64.036              
C              29.444              80.002              65.322              
C              29.271              78.508              65.194              
N              28.916              78.001              66.515              
C              27.678              77.891              66.985              
N              26.63               78.102              66.186              
N              27.472              77.498              68.234              
H              29.448              82.6                62.135              
H              29.057              82.522              64.973              
H              28.766              80.623              63.501              
H              30.385              80.43               63.564              
H              30.264              80.168              65.903              
H              28.643              80.36               65.839              
H              28.541              78.33               64.568              
H              30.123              78.118              64.911              
H              29.673              77.71               67.123              
H              26.762              78.324              65.225              
H              25.701              78.034              66.561              
H              28.257              77.265              68.815              
H              26.546              77.432              68.596              
N              32.138              82.615              63.996              
C              33.508              82.939              64.433              
C              33.537              84.303              65.077              
O              34.044              84.455              66.204              
C              34.469              82.891              63.238              
C              34.75               81.463              62.796              
C              35.315              81.416              61.408              
N              35.998              80.147              61.139              
C              36.284              79.688              59.922              
N              35.928              80.378              58.84               
N              36.917              78.534              59.776              
H              31.884              82.44               63.008              
H              33.796              82.249              65.103              
H              34.052              83.372              62.486              
H              35.321              83.305              63.509              
H              35.407              81.049              63.424              
H              33.898              80.942              62.812              
H              34.569              81.525              60.755              
H              35.969              82.162              61.304              
H              36.269              79.585              61.929              
H              35.462              81.254              58.925              
H              36.133              80.01               57.928              
H              37.197              78.017              60.591              
H              37.117              78.178              58.867              
N              32.952              85.3                64.382              
H              32.569              84.998              63.455              
H              30.6142             81.5046             40.9287             
H              32.8847             86.2617             64.7199             
