368
0.xyz
N              31.692              93.277              79.91               
C              32.204              91.913              79.956              
C              31.1                90.885              80.093              
O              30.911              90.05               79.205              
H              31.516              93.609              80.839              
H              32.734              91.727              79.111              
H              32.845              91.824              80.737              
H              32.361              93.88               79.471              
H              30.837              93.305              79.388              
N              30.353              90.947              81.212              
C              29.244              90.02               81.486              
C              28.092              90.214              80.483              
O              27.43               89.241              80.121              
C              28.728              90.216              82.926              
C              27.472              89.458              83.23               
H              30.631              91.71               81.866              
H              29.586              89.08               81.389              
H              29.443              89.919              83.567              
H              28.553              91.195              83.074              
N              26.244              90.095              83.296              
C              27.291              88.135              83.45               
C              25.362              89.149              83.578              
N              25.947              87.952              83.677              
H              26.071              91.046              83.161              
H              27.991              87.431              83.449              
H              24.371              89.305              83.705              
N              27.834              91.466              80.062              
C              26.76               91.751              79.101              
C              27.118              91.179              77.728              
O              26.241              90.676              77.031              
C              26.491              93.27               79.001              
C              26.069              93.912              80.313              
C              25.819              95.402              80.144              
C              25.397              96.069              81.436              
N              25.166              97.52               81.223              
H              28.448              92.193              80.468              
H              25.916              91.316              79.421              
H              27.33               93.708              78.688              
H              25.765              93.407              78.331              
H              25.227              93.478              80.633              
H              26.792              93.779              80.99               
H              26.662              95.833              79.821              
H              25.097              95.532              79.466              
H              24.553              95.644              81.762              
H              26.118              95.946              82.118              
H              25.128              97.984              82.108              
H              25.914              97.9                80.679              
H              24.301              97.652              80.739              
N              28.417              91.251              77.348              
C              28.927              90.687              76.088              
C              28.828              89.158              76.095              
O              28.566              88.568              75.06               
C              30.397              91.112              75.858              
C              31.084              90.429              74.675              
C              30.353              90.586              73.355              
O              29.926              91.724              73.052              
O              30.174              89.569              72.643              
H              29.027              91.747              78.037              
H              28.396              91.053              75.318              
H              30.399              92.081              75.686              
H              30.901              90.88               76.671              
H              31.981              90.83               74.57               
H              31.142              89.462              74.871              
N              29.081              88.521              77.249              
C              29.018              87.06               77.363              
C              27.572              86.583              77.145              
O              27.352              85.603              76.434              
C              29.587              86.584              78.728              
C              29.135              85.161              79.065              
C              31.108              86.673              78.726              
H              29.322              89.146              78.042              
H              29.582              86.664              76.639              
H              29.214              87.183              79.433              
H              29.339              84.969              80.023              
H              28.152              85.081              78.908              
H              29.622              84.513              78.482              
H              31.412              87.137              79.557              
H              31.492              85.751              78.696              
H              31.407              87.189              77.924              
N              26.599              87.288              77.74               
C              25.18               86.951              77.598              
C              24.751              87.114              76.148              
O              24.053              86.258              75.613              
C              24.328              87.857              78.509              
C              22.846              87.476              78.562              
C              22.054              88.379              79.455              
H              26.94               88.092              78.309              
H              25.067              85.987              77.848              
H              24.694              87.808              79.438              
H              24.394              88.798              78.174              
H              22.479              87.526              77.633              
H              22.778              86.536              78.897              
O              22.558              89.322              80.073              
N              20.749              88.085              79.56               
H              20.14               88.645              80.163              
H              20.38               87.303              79.035              
N              25.19               88.209              75.507              
C              24.851              88.504              74.119              
C              25.473              87.463              73.185              
O              24.787              86.95               72.308              
C              25.34               89.917              73.757              
C              25.163              90.333              72.303              
C              23.684              90.332              71.905              
C              25.77               91.698              72.06               
H              25.795              88.828              76.093              
H              23.854              88.464              74.015              
H              24.833              90.563              74.32               
H              26.311              89.962              73.969              
H              25.66               89.693              71.714              
H              23.186              90.974              72.486              
H              23.6                90.608              70.949              
H              23.312              89.413              72.024              
H              26.749              91.676              72.271              
H              25.646              91.958              71.1                
H              25.322              92.377              72.646              
N              26.776              87.151              73.385              
C              27.491              86.134              72.599              
C              26.713              84.813              72.608              
O              26.409              84.278              71.553              
C              28.907              85.917              73.178              
C              29.638              84.692              72.622              
C              31.146              84.749              72.876              
C              31.53               84.469              74.315              
N              32.99               84.538              74.493              
H              27.226              87.7                74.15               
H              27.57               86.454              71.652              
H              29.451              86.727              72.971              
H              28.821              85.809              74.166              
H              29.27               83.869              73.059              
H              29.48               84.64               71.634              
H              31.592              84.071              72.286              
H              31.475              85.664              72.628              
H              31.087              85.147              74.906              
H              31.204              83.555              74.565              
H              33.33               83.666              74.851              
H              33.431              84.727              73.613              
H              33.219              85.27               75.139              
N              26.342              84.331              73.8                
C              25.596              83.081              73.942              
C              24.249              83.15               73.242              
O              23.837              82.164              72.637              
C              25.389              82.728              75.429              
C              26.673              82.415              76.183              
O              27.731              82.255              75.523              
O              26.621              82.331              77.425              
H              26.629              84.92               74.61               
H              26.134              82.361              73.482              
H              24.943              83.507              75.866              
H              24.79               81.931              75.471              
N              23.551              84.291              73.323              
C              22.261              84.42               72.652              
C              22.436              84.381              71.114              
O              21.67               83.721              70.429              
C              21.545              85.714              73.081              
C              20.863              85.592              74.449              
C              20.313              86.912              74.968              
H              23.992              85.035              73.879              
H              21.692              83.633              72.906              
H              22.214              86.447              73.134              
H              20.846              85.932              72.406              
H              20.107              84.941              74.368              
H              21.533              85.243              75.106              
O              20.956              87.965              74.888              
N              19.157              86.865              75.605              
H              18.735              87.705              75.992              
H              18.685              85.965              75.706              
N              23.473              85.043              70.595              
C              23.738              85.07               69.162              
C              24.07               83.663              68.667              
O              23.592              83.257              67.612              
C              24.878              86.052              68.832              
C              24.419              87.506              69.087              
C              25.329              85.87               67.343              
C              25.534              88.465              69.199              
H              24.067              85.531              71.297              
H              22.879              85.332              68.72               
H              25.636              85.864              69.443              
H              23.814              87.765              68.334              
H              23.884              87.503              69.934              
H              26.082              86.491              67.168              
H              25.615              84.929              67.217              
H              24.558              86.082              66.756              
H              26.075              88.474              68.351              
H              25.183              89.393              69.364              
H              26.139              88.212              69.961              
N              24.886              82.928              69.42               
C              25.254              81.573              69.035              
C              24.032              80.662              69.066              
O              23.911              79.78               68.222              
C              26.343              81.027              69.949              
C              27.703              81.697              69.841              
C              28.63               81.184              70.932              
C              28.327              81.469              68.465              
H              25.225              83.395              70.28               
H              25.612              81.59               68.097              
H              26.032              81.131              70.891              
H              26.466              80.061              69.736              
H              27.592              82.685              69.94               
H              28.745              80.195              70.836              
H              29.521              81.631              70.852              
H              28.236              81.387              71.829              
H              27.727              81.85               67.762              
H              29.218              81.921              68.426              
H              28.442              80.488              68.312              
N              23.128              80.905              70.014              
C              21.865              80.173              70.116              
C              20.986              80.387              68.901              
O              20.339              79.456              68.427              
H              23.398              81.665              70.68               
H              22.062              79.186              70.221              
H              21.373              80.476              70.946              
N              20.978              81.6                68.37               
C              20.242              81.907              67.144              
C              20.964              81.215              65.936              
O              20.312              80.656              65.068              
C              20.115              83.437              66.94               
C              19.561              83.768              65.558              
C              19.238              84.056              68.029              
H              21.533              82.31               68.892              
H              19.333              81.509              67.206              
H              21.033              83.823              66.987              
H              18.573              83.618              65.551              
H              19.755              84.724              65.342              
H              19.993              83.178              64.877              
H              18.329              83.645              67.989              
H              19.651              83.879              68.921              
H              19.172              85.04               67.875              
N              22.286              81.235              65.917              
C              23.028              80.617              64.816              
C              22.896              79.102              64.883              
O              22.819              78.469              63.84               
C              24.507              81.054              64.818              
C              24.732              82.547              64.445              
C              26.214              82.95               64.615              
C              24.269              82.845              62.996              
H              22.737              81.707              66.716              
H              22.635              80.934              63.95               
H              24.863              80.927              65.727              
H              24.988              80.514              64.152              
H              24.168              83.113              65.042              
H              26.774              82.381              64.018              
H              26.318              83.91               64.367              
H              26.479              82.812              65.566              
H              23.298              82.637              62.921              
H              24.43               83.808              62.8                
H              24.792              82.274              62.369              
N              22.747              78.528              66.105              
C              22.46               77.098              66.278              
C              21.126              76.748              65.634              
O              21.013              75.722              64.97               
C              22.393              76.722              67.772              
C              23.712              76.771              68.49               
O              24.773              76.891              67.798              
O              23.706              76.716              69.748              
H              22.855              79.192              66.897              
H              23.171              76.594              65.782              
H              21.756              77.359              68.211              
H              22.021              75.794              67.829              
N              20.08               77.535              65.916              
C              18.761              77.266              65.34               
C              18.814              77.439              63.797              
O              18.217              76.669              63.059              
C              17.714              78.202              65.948              
C              16.316              77.92               65.455              
C              15.546              76.912              66.022              
C              15.773              78.635              64.396              
C              14.26               76.634              65.555              
C              14.476              78.396              63.949              
C              13.732              77.377              64.512              
O              12.459              77.12               64.058              
H              20.281              78.319              66.553              
H              18.516              76.316              65.528              
H              17.729              78.087              66.934              
H              17.95               79.135              65.702              
H              15.915              76.371              66.78               
H              16.322              79.338              63.943              
H              13.724              75.901              65.976              
H              14.087              78.962              63.221              
H              12.344              77.529              63.154              
N              19.527              78.443              63.338              
C              19.662              78.728              61.916              
C              20.296              77.531              61.162              
O              19.744              77.061              60.176              
C              20.528              79.993              61.76               
C              20.703              80.586              60.361              
C              19.448              81.185              59.866              
C              21.738              81.69               60.386              
H              19.992              79.023              64.077              
H              18.75               78.887              61.525              
H              20.122              80.707              62.339              
H              21.443              79.775              62.11               
H              21.01               79.849              59.744              
H              19.14               81.925              60.477              
H              19.576              81.572              58.944              
H              18.717              80.493              59.817              
H              22.617              81.323              60.696              
H              21.847              82.073              59.466              
H              21.445              82.415              61.012              
N              21.423              77.027              61.66               
C              22.177              75.958              60.983              
C              21.432              74.601              60.922              
O              21.736              73.802              60.031              
C              23.538              75.766              61.655              
C              23.47               75.138              63.034              
C              24.804              75.003              63.737              
O              25.743              75.734              63.367              
O              24.886              74.226              64.713              
H              21.727              77.447              62.562              
H              22.4                76.251              60.036              
H              24.073              75.17               61.08               
H              23.953              76.655              61.75               
H              22.889              75.705              63.604              
H              23.089              74.227              62.942              
N              20.464              74.336              61.831              
C              19.77               73.058              61.8                
C              18.525              73.12               60.908              
O              17.86               72.108              60.751              
C              19.422              72.532              63.218              
C              18.507              73.388              64.055              
C              18.516              72.936              65.527              
C              17.876              71.582              65.73               
N              17.556              71.327              67.164              
H              20.284              75.087              62.502              
H              20.391              72.354              61.431              
H              19                  71.622              63.103              
H              20.295              72.409              63.712              
H              18.809              74.339              64.02               
H              17.572              73.318              63.713              
H              19.467              72.897              65.834              
H              18.018              73.616              66.065              
H              17.028              71.534              65.193              
H              18.504              70.868              65.404              
H              17.379              70.352              67.294              
H              18.331              71.606              67.73               
H              16.746              71.853              67.42               
N              18.272              74.256              60.227              
C              17.19               74.316              59.238              
C              17.694              73.744              57.907              
O              18.857              73.947              57.542              
C              16.702              75.758              59.025              
C              16.279              76.485              60.296              
C              15.378              75.658              61.166              
H              18.887              75.047              60.459              
H              16.446              73.733              59.557              
H              17.442              76.285              58.596              
H              15.915              75.739              58.4                
H              17.104              76.722              60.813              
H              15.8                77.325              60.034              
O              14.399              75.087              60.7                
N              15.737              75.491              62.426              
H              15.169              74.955              63.078              
H              16.612              75.915              62.749              
N              16.818              73.052              57.176              
C              17.165              72.46               55.876              
C              15.978              71.617              55.331              
C              15.584              70.467              56.224              
C              14.435              69.673              55.667              
H              15.871              72.967              57.602              
H              17.965              71.864              56.007              
H              15.192              72.226              55.224              
H              16.243              71.255              54.436              
H              16.372              69.858              56.333              
H              15.321              70.829              57.12               
O              13.89               69.949              54.597              
N              14.025              68.647              56.427              
H              13.239              68.065              56.127              
H              14.506              68.46               57.298              
H              17.4537             73.2377             55.127              
