245
0.xyz
N              -27.437             -6.91               10.46               
C              -27.546             -8.034              9.535               
C              -27.425             -7.551              8.095               
O              -28.277             -6.808              7.606               
C              -28.861             -8.771              9.738               
H              -28.309             -6.77               10.933              
H              -26.799             -8.68               9.721               
H              -28.75              -9.463              10.451              
H              -29.57              -8.122              10.013              
H              -29.131             -9.215              8.884               
H              -26.724             -7.094              11.14               
H              -27.201             -6.075              9.958               
N              -26.366             -7.975              7.415               
C              -26.153             -7.557              6.036               
C              -27.132             -8.229              5.085               
O              -27.442             -9.409              5.237               
C              -24.722             -7.867              5.598               
C              -23.688             -7.201              6.479               
H              -25.731             -8.603              7.932               
H              -26.334             -6.564              5.994               
H              -24.588             -8.853              5.638               
H              -24.602             -7.542              4.663               
O              -23.577             -5.974              6.509               
N              -22.914             -8.011              7.19                
H              -23.027             -9.003              7.122               
H              -22.214             -7.632              7.797               
N              -27.601             -7.485              4.076               
C              -28.46              -8.102              3.07                
C              -27.625             -8.975              2.153               
O              -26.394             -8.922              2.211               
C              -29.027             -6.9                2.321               
C              -27.91              -5.903              2.367               
C              -27.269             -6.094              3.73                
H              -29.194             -8.631              3.501               
H              -29.25              -7.141              1.378               
H              -29.84              -6.545              2.779               
H              -27.247             -6.08               1.638               
H              -28.264             -4.971              2.271               
H              -26.279             -5.967              3.683               
H              -27.654             -5.459              4.401               
N              -28.278             -9.781              1.311               
C              -27.511             -10.409             0.24                
C              -26.885             -9.324              -0.636              
O              -27.419             -8.216              -0.7                
C              -28.567             -11.208             -0.533              
C              -29.665             -11.423             0.436               
C              -29.689             -10.197             1.303               
H              -26.808             -11.017             0.607               
H              -28.882             -10.687             -1.334              
H              -28.182             -12.081             -0.851              
H              -30.546             -11.54              -0.04               
H              -29.497             -12.248             0.99                
H              -30.264             -9.482              0.911               
H              -29.999             -10.408             2.229               
N              -25.762             -9.63               -1.294              
C              -25.147             -8.653              -2.2                
C              -26.048             -8.345              -3.385              
O              -26.935             -9.148              -3.695              
C              -23.864             -9.357              -2.658              
C              -24.156             -10.811             -2.489              
C              -25.002             -10.889             -1.248              
H              -24.908             -7.809              -1.701              
H              -23.665             -9.139              -3.616              
H              -23.087             -9.077              -2.091              
H              -24.653             -11.166             -3.284              
H              -23.306             -11.33              -2.376              
H              -25.619             -11.673             -1.274              
H              -24.439             -10.931             -0.423              
N              -25.82              -7.203              -4.049              
C              -26.655             -6.851              -5.202              
C              -26.583             -7.919              -6.282              
O              -25.561             -8.599              -6.414              
C              -26.051             -5.526              -5.685              
C              -25.29              -4.985              -4.471              
C              -24.742             -6.219              -3.82               
H              -27.609             -6.694              -4.915              
H              -25.421             -5.673              -6.446              
H              -26.763             -4.883              -5.957              
H              -24.565             -4.377              -4.776              
H              -25.919             -4.501              -3.872              
H              -23.898             -6.521              -4.254              
H              -24.594             -6.086              -2.842              
N              -27.66              -8.08               -7.042              
C              -27.649             -9.048              -8.126              
C              -26.598             -8.65               -9.159              
O              -26.34              -7.462              -9.374              
C              -29.026             -9.148              -8.776              
C              -29.398             -7.914              -9.558              
C              -30.702             -8.067              -10.305             
O              -31.478             -8.986              -9.965              
O              -30.941             -7.273              -11.243             
H              -28.464             -7.485              -6.804              
H              -27.436             -9.96               -7.769              
H              -29.007             -9.907              -9.398              
H              -29.686             -9.264              -8.06               
H              -29.503             -7.165              -8.928              
H              -28.694             -7.74               -10.224             
N              -25.98              -9.644              -9.786              
C              -24.963             -9.381              -10.801             
C              -25.353             -9.988              -12.135             
O              -24.648             -9.846              -13.131             
C              -23.611             -9.915              -10.367             
O              -23.699             -11.332             -10.177             
C              -23.218             -9.263              -9.052              
H              -26.273             -10.595             -9.501              
H              -24.88              -8.383              -10.915             
H              -22.925             -9.74               -11.104             
H              -22.444             -8.642              -9.197              
H              -23.992             -8.741              -8.685              
H              -22.953             -9.967              -8.388              
H              -24.662             -11.621             -10.141             
N              -26.494             -10.662             -12.157             
C              -27.071             -11.084             -13.417             
C              -28.576             -11.105             -13.279             
O              -29.113             -11.204             -12.175             
C              -26.556             -12.457             -13.849             
O              -26.982             -13.468             -12.969             
H              -26.915             -10.85              -11.234             
H              -26.832             -10.408             -14.115             
H              -26.9               -12.652             -14.766             
H              -25.558             -12.432             -13.863             
H              -26.568             -13.329             -12.068             
N              -29.246             -10.996             -14.416             
C              -30.691             -10.997             -14.455             
C              -31.137             -11.498             -15.815             
O              -31.078             -10.766             -16.79              
C              -31.231             -9.595              -14.184             
C              -32.723             -9.579              -13.961             
H              -28.647             -10.911             -15.266             
H              -31.011             -11.66              -13.779             
H              -30.781             -9.237              -13.369             
H              -31.018             -9.019              -14.97              
O              -33.48              -10.223             -14.69              
N              -33.161             -8.836              -12.948             
H              -32.51              -8.323              -12.388             
H              -34.139             -8.79               -12.747             
N              -31.582             -12.76              -15.883             
C              -31.936             -13.369             -17.171             
C              -33.169             -12.743             -17.834             
O              -33.518             -13.131             -18.946             
C              -32.201             -14.833             -16.8               
C              -32.612             -14.783             -15.355             
C              -31.774             -13.69              -14.754             
H              -31.141             -13.342             -17.807             
H              -32.934             -15.215             -17.365             
H              -31.374             -15.384             -16.916             
H              -33.589             -14.572             -15.278             
H              -32.43              -15.663             -14.911             
H              -32.248             -13.234             -14.003             
H              -30.893             -14.037             -14.432             
N              -33.813             -11.796             -17.163             
C              -34.957             -11.092             -17.733             
C              -34.668             -9.614              -17.992             
O              -35.529             -8.879              -18.483             
C              -36.166             -11.219             -16.812             
C              -36.518             -12.661             -16.52              
H              -33.439             -11.602             -16.213             
H              -35.15              -11.515             -18.632             
H              -35.958             -10.762             -15.952             
H              -36.946             -10.783             -17.253             
O              -36.7               -13.049             -15.366             
N              -36.598             -13.469             -17.567             
H              -36.424             -13.118             -18.488             
H              -36.833             -14.434             -17.441             
N              -33.456             -9.186              -17.65              
C              -33.01              -7.811              -17.871             
C              -32.226             -7.737              -19.17              
O              -31.239             -8.459              -19.333             
C              -32.138             -7.331              -16.708             
C              -31.557             -5.922              -16.875             
C              -30.572             -5.599              -15.753             
C              -30.27              -4.105              -15.672             
N              -29.477             -3.613              -16.839             
H              -32.85              -9.915              -17.21              
H              -33.813             -7.217              -17.942             
H              -32.692             -7.339              -15.875             
H              -31.374             -7.97               -16.604             
H              -31.08              -5.871              -17.748             
H              -32.301             -5.261              -16.853             
H              -30.967             -5.889              -14.887             
H              -29.72              -6.085              -15.924             
H              -31.139             -3.601              -15.63              
H              -29.756             -3.924              -14.826             
H              -28.635             -3.189              -16.509             
H              -29.256             -4.384              -17.434             
H              -30.017             -2.941              -17.344             
N              -32.658             -6.871              -20.102             
C              -31.986             -6.805              -21.407             
C              -30.493             -6.509              -21.264             
O              -30.112             -5.588              -20.534             
C              -32.716             -5.662              -22.123             
C              -34.058             -5.607              -21.464             
C              -33.791             -5.934              -20.017             
H              -32.132             -7.659              -21.925             
H              -32.222             -4.798              -22.003             
H              -32.804             -5.857              -23.101             
H              -34.458             -4.693              -21.555             
H              -34.679             -6.279              -21.873             
H              -33.536             -5.12               -19.5               
H              -34.58              -6.373              -19.59              
N              -29.666             -7.3                -21.94              
C              -28.219             -7.192              -21.807             
C              -27.552             -6.928              -23.155             
O              -28.063             -7.308              -24.204             
C              -27.657             -8.461              -21.166             
C              -27.43              -9.617              -22.119             
C              -27.367             -10.927             -21.351             
C              -26.108             -11.018             -20.504             
N              -25.831             -12.426             -20.103             
H              -30.134             -7.99               -22.561             
H              -28.003             -6.425              -21.187             
H              -26.781             -8.23               -20.736             
H              -28.299             -8.759              -20.454             
H              -28.184             -9.66               -22.769             
H              -26.569             -9.483              -22.6               
H              -28.158             -10.987             -20.75              
H              -27.368             -11.682             -21.999             
H              -25.334             -10.668             -21.033             
H              -26.227             -10.46              -19.682             
H              -25.53              -12.445             -19.15              
H              -26.665             -12.968             -20.202             
H              -25.114             -12.802             -20.689             
N              -26.397             -6.28               -23.114             
C              -25.771             -5.784              -24.325             
C              -26.51              -4.54               -24.813             
C              -26.216             -4.141              -26.232             
C              -27.105             -3.001              -26.665             
N              -26.889             -1.806              -25.868             
C              -26.786             -0.59               -26.384             
N              -26.879             -0.424              -27.695             
N              -26.581             0.456               -25.596             
H              -25.993             -6.163              -22.166             
H              -25.815             -6.495              -25.031             
H              -27.493             -4.714              -24.731             
H              -26.26              -3.778              -24.213             
H              -25.267             -3.844              -26.31              
H              -26.382             -4.913              -26.841             
H              -26.909             -2.799              -27.623             
H              -28.056             -3.294              -26.571             
H              -26.813             -1.906              -24.872             
H              -27.045             -1.189              -28.309             
H              -26.78              0.504               -28.085             
H              -26.524             0.322               -24.602             
H              -26.485             1.369               -25.983             
H              -24.7254            -5.55348            -24.1246            
