327
4.xyz
C              -27.811             2.147               9.075               
O              -28.506             2.794               8.29                
N              -26.687             1.535               8.702               
C              -26.191             1.682               7.323               
C              -27.248             1.351               6.266               
O              -27.445             2.114               5.309               
C              -24.94              0.814               7.093               
C              -24.3               1.102               5.744               
C              -23.438             2.169               5.586               
C              -24.597             0.332               4.629               
C              -22.871             2.457               4.36                
C              -24.032             0.614               3.396               
C              -23.172             1.681               3.27                
O              -22.598             1.99                2.051               
H              -26.219             0.979               9.423               
H              -25.91              2.647               7.194               
H              -24.285             1.021               7.799               
H              -25.212             -0.133              7.111               
H              -23.217             2.75                6.377               
H              -25.227             -0.438              4.716               
H              -22.238             3.234               4.27                
H              -24.25              0.044               2.602               
H              -23.307             1.995               1.35                
N              -27.957             0.238               6.437               
C              -28.922             -0.178              5.419               
C              -30.263             0.525               5.515               
O              -31.121             0.331               4.656               
C              -29.117             -1.683              5.477               
C              -27.82              -2.39               5.237               
C              -27.218             -2.357              3.977               
C              -27.17              -3.05               6.264               
C              -26.016             -2.987              3.755               
C              -25.972             -3.682              6.053               
C              -25.398             -3.645              4.798               
O              -24.2               -4.279              4.59                
H              -27.776             -0.278              7.305               
H              -28.52              0.029               4.505               
H              -29.447             -1.922              6.375               
H              -29.754             -1.944              4.771               
H              -27.672             -1.868              3.231               
H              -27.585             -3.063              7.177               
H              -25.591             -2.969              2.848               
H              -25.513             -4.168              6.799               
H              -24.029             -4.916              5.341               
N              -30.442             1.341               6.552               
C              -31.594             2.235               6.608               
C              -31.284             3.524               5.855               
O              -32.142             4.079               5.172               
C              -31.981             2.551               8.056               
C              -32.402             1.332               8.856               
C              -32.974             1.727               10.215              
C              -33.351             0.497               11.015              
N              -32.168             -0.381              11.231              
H              -29.719             1.286               7.286               
H              -32.377             1.787               6.171               
H              -31.193             2.966               8.504               
H              -32.741             3.197               8.04                
H              -33.102             0.83                8.348               
H              -31.608             0.743               9.002               
H              -32.285             2.236               10.714              
H              -33.786             2.278               10.071              
H              -33.714             0.782               11.902              
H              -34.053             -0.015              10.518              
H              -31.367             0.184               11.425              
H              -32.344             -0.99               12.004              
H              -32.003             -0.923              10.408              
N              -30.042             3.982               5.978               
C              -29.608             5.238               5.38                
C              -29.244             5.055               3.904               
O              -29.491             5.935               3.07                
C              -28.413             5.813               6.159               
C              -28.87              6.237               7.558               
C              -27.789             6.991               5.431               
C              -27.737             6.399               8.542               
H              -29.409             3.367               6.537               
H              -30.403             5.854               5.402               
H              -27.738             5.095               6.261               
H              -29.361             7.103               7.479               
H              -29.5               5.542               7.903               
H              -26.999             7.322               5.945               
H              -27.494             6.704               4.52                
H              -28.46              7.726               5.346               
H              -27.105             7.099               8.21                
H              -28.104             6.675               9.43                
H              -27.252             5.53                8.638               
N              -28.674             3.893               3.594               
C              -28.215             3.583               2.245               
C              -29.144             2.572               1.582               
O              -29.084             1.373               1.866               
C              -26.77              3.038               2.272               
C              -25.847             4.078               2.893               
C              -26.318             2.608               0.864               
C              -25.997             5.471               2.298               
H              -28.585             3.229               4.394               
H              -28.293             4.433               1.717               
H              -26.762             2.231               2.846               
H              -26.033             4.128               3.873               
H              -24.901             3.781               2.764               
H              -25.405             2.216               0.922               
H              -26.956             1.931               0.511               
H              -26.307             3.406               0.269               
H              -26.934             5.785               2.434               
H              -25.363             6.091               2.754               
H              -25.791             5.434               1.323               
N              -30.012             3.069               0.705               
C              -31.045             2.246               0.091               
C              -30.477             1.354               -1.001              
O              -31.022             0.288               -1.294              
C              -32.152             3.142               -0.475              
C              -32.476             4.314               0.443               
C              -33.862             4.889               0.209               
C              -34.267             5.785               1.373               
N              -35.588             6.441               1.16                
H              -29.889             4.082               0.5                 
H              -31.462             1.661               0.803               
H              -31.847             3.501               -1.346              
H              -32.97              2.594               -0.585              
H              -32.41              4.005               1.399               
H              -31.794             5.04                0.297               
H              -33.851             5.433               -0.618              
H              -34.514             4.147               0.141               
H              -34.307             5.229               2.211               
H              -33.563             6.494               1.496               
H              -36.317             5.811               1.425               
H              -35.64              7.268               1.719               
H              -35.686             6.681               0.195               
N              -29.374             1.791               -1.6                
C              -28.763             1.034               -2.685              
C              -27.279             0.831               -2.456              
O              -26.473             1.569               -3.001              
C              -28.948             1.738               -4.029              
O              -30.317             2.136               -4.166              
C              -28.568             0.801               -5.168              
H              -29.001             2.685               -1.24               
H              -29.207             0.127               -2.73               
H              -28.371             2.579               -4.047              
H              -28.232             -0.067              -4.796              
H              -29.37              0.623               -5.743              
H              -27.849             1.22                -5.727              
H              -30.573             2.77                -3.428              
N              -26.918             -0.156              -1.626              
C              -25.501             -0.498              -1.46               
C              -24.861             -0.826              -2.807              
O              -25.479             -1.477              -3.668              
C              -25.534             -1.729              -0.55               
C              -26.85              -1.655              0.153               
C              -27.797             -1.023              -0.825              
H              -25.006             0.247               -1.002              
H              -25.464             -2.572              -1.093              
H              -24.774             -1.705              0.106               
H              -27.163             -2.576              0.413               
H              -26.771             -1.099              0.988               
H              -28.237             -1.708              -1.405              
H              -28.498             -0.48               -0.36               
N              -23.631             -0.38               -2.999              
C              -22.923             -0.691              -4.234              
C              -21.414             -0.696              -3.994              
O              -20.912             0.006               -3.126              
C              -23.311             0.306               -5.335              
C              -22.746             -0.01               -6.733              
S              -23.106             -1.684              -7.289              
C              -24.889             -1.74               -7.099              
H              -23.234             0.182               -2.233              
H              -23.191             -1.612              -4.529              
H              -24.319             0.34                -5.408              
H              -22.99              1.228               -5.072              
H              -23.122             0.686               -7.388              
H              -21.733             0.162               -6.71               
H              -25.144             -1.341              -6.217              
H              -25.32              -1.219              -7.837              
H              -25.2               -2.69               -7.137              
N              -20.7               -1.493              -4.783              
C              -19.259             -1.639              -4.62               
C              -18.634             -2.06               -5.952              
O              -19.337             -2.528              -6.848              
C              -18.957             -2.682              -3.557              
C              -19.37              -4.077              -3.992              
O              -20.564             -4.433              -3.85               
O              -18.503             -4.809              -4.494              
H              -21.248             -1.992              -5.51               
H              -18.889             -0.736              -4.397              
H              -17.98              -2.68               -3.387              
H              -19.458             -2.445              -2.735              
N              -17.313             -1.937              -6.066              
C              -16.658             -2.246              -7.342              
C              -16.61              -3.744              -7.641              
O              -16.479             -4.146              -8.806              
C              -15.236             -1.679              -7.368              
C              -15.187             -0.165              -7.254              
S              -13.628             0.525               -7.863              
C              -12.467             -0.244              -6.72               
H              -16.818             -1.623              -5.226              
H              -17.188             -1.798              -8.08               
H              -14.713             -2.074              -6.604              
H              -14.793             -1.949              -8.231              
H              -15.98              0.228               -7.77               
H              -15.337             0.096               -6.275              
H              -12.707             0.011               -5.784              
H              -12.514             -1.237              -6.82               
H              -11.541             0.071               -6.927              
N              -16.684             -4.569              -6.603              
C              -16.688             -6.01               -6.802              
C              -17.954             -6.382              -7.558              
O              -17.923             -7.166              -8.515              
H              -16.736             -4.113              -5.679              
H              -15.891             -6.279              -7.335              
H              -16.68              -6.473              -5.92               
N              -19.064             -5.782              -7.134              
C              -20.363             -5.976              -7.783              
C              -20.371             -5.41               -9.205              
O              -20.861             -6.047              -10.147             
C              -21.485             -5.316              -6.965              
O              -21.611             -5.985              -5.706              
C              -22.816             -5.379              -7.715              
H              -18.931             -5.164              -6.304              
H              -20.548             -6.966              -7.837              
H              -21.234             -4.344              -6.786              
H              -22.649             -5.333              -8.701              
H              -23.284             -6.237              -7.498              
H              -23.393             -4.608              -7.441              
H              -21.211             -5.427              -4.971              
N              -19.826             -4.205              -9.359              
C              -19.753             -3.577              -10.679             
C              -18.916             -4.449              -11.62              
O              -19.289             -4.657              -12.776             
C              -19.172             -2.144              -10.588             
C              -20.104             -1.262              -9.751              
C              -19.002             -1.539              -11.988             
C              -19.552             0.151               -9.442              
H              -19.471             -3.767              -8.495              
H              -20.683             -3.578              -11.043             
H              -18.3               -2.2                -10.124             
H              -20.971             -1.157              -10.235             
H              -20.279             -1.719              -8.879              
H              -18.61              -0.627              -11.905             
H              -18.395             -2.12               -12.524             
H              -19.893             -1.484              -12.431             
H              -19.392             0.62                -10.303             
H              -20.226             0.639               -8.899              
H              -18.703             0.052               -8.936              
N              -17.81              -4.994              -11.119             
C              -16.958             -5.865              -11.933             
C              -17.719             -7.078              -12.435             
O              -17.63              -7.43               -13.618             
C              -15.735             -6.328              -11.148             
C              -14.786             -7.228              -11.94              
C              -13.466             -7.397              -11.194             
C              -12.425             -8.121              -12.043             
N              -12.721             -9.577              -12.21              
H              -17.609             -4.757              -10.134             
H              -16.623             -5.337              -12.726             
H              -15.224             -5.522              -10.855             
H              -16.048             -6.837              -10.347             
H              -15.208             -8.121              -12.056             
H              -14.607             -6.812              -12.825             
H              -13.112             -6.497              -10.96              
H              -13.628             -7.93               -10.37              
H              -12.389             -7.688              -12.951             
H              -11.523             -8.018              -11.608             
H              -12.627             -9.823              -13.173             
H              -12.077             -10.108             -11.662             
H              -13.654             -9.759              -11.905             
N              -18.464             -7.723              -11.544             
C              -19.259             -8.881              -11.95              
C              -20.357             -8.484              -12.923             
O              -20.653             -9.212              -13.876             
C              -19.866             -9.575              -10.729             
C              -18.819             -10.251             -9.84               
C              -19.43              -10.779             -8.549              
C              -18.358             -11.257             -7.583              
N              -18.936             -11.596             -6.251              
H              -18.434             -7.353              -10.586             
H              -18.651             -9.549              -12.4               
H              -20.341             -8.894              -10.184             
H              -20.5               -10.271             -11.047             
H              -18.413             -11.014             -10.343             
H              -18.108             -9.585              -9.615              
H              -19.945             -10.048             -8.115              
H              -20.027             -11.544             -8.765              
H              -17.914             -12.07              -7.965              
H              -17.675             -10.533             -7.469              
H              -19.325             -10.772             -5.841              
H              -19.651             -12.284             -6.367              
H              -18.215             -11.957             -5.661              
N              -20.982             -7.336              -12.685             
C              -22.023             -6.869              -13.594             
C              -21.438             -6.653              -14.993             
O              -22.05              -7.045              -15.985             
C              -22.681             -5.593              -13.068             
C              -23.592             -5.85               -11.864             
C              -24.359             -4.61               -11.396             
N              -25.383             -5.014              -10.437             
C              -26.304             -4.215              -9.904              
N              -26.36              -2.931              -10.23              
N              -27.183             -4.713              -9.049              
H              -20.681             -6.831              -11.843             
H              -22.742             -7.565              -13.654             
H              -21.97              -4.967              -12.783             
H              -23.234             -5.203              -13.789             
H              -24.264             -6.556              -12.103             
H              -23.037             -6.177              -11.094             
H              -23.719             -4.002              -10.962             
H              -24.784             -4.201              -12.184             
H              -25.395             -5.989              -10.151             
H              -25.724             -2.546              -10.897             
H              -27.05              -2.337              -9.804              
H              -27.166             -5.689              -8.821              
H              -27.869             -4.118              -8.628              
N              -20.25              -6.054              -15.072             
C              -19.585             -5.853              -16.369             
C              -18.323             -5.009              -16.203             
C              -18.57              -3.517              -15.968             
C              -17.3               -2.814              -15.507             
C              -19.098             -2.885              -17.241             
H              -19.847             -5.751              -14.172             
H              -20.218             -5.348              -16.972             
H              -17.824             -5.354              -15.418             
H              -17.785             -5.094              -17.03              
H              -19.28              -3.412              -15.269             
H              -16.591             -2.914              -16.205             
H              -17.49              -1.843              -15.361             
H              -16.984             -3.223              -14.651             
H              -19.958             -3.326              -17.505             
H              -19.261             -1.908              -17.09              
H              -18.428             -2.999              -17.977             
H              -19.3293            -6.80092            -16.8473            
H              -28.1132            2.05347             10.0941             
