238
1.xyz
C              -3.994              10.967              0.542               
C              -5.477              11.195              0.315               
O              -5.867              11.822              -0.677              
C              -3.297              12.264              0.983               
C              -2.023              11.983              1.747               
C              -0.845              11.67               1.076               
C              -2.016              11.968              3.137               
C              0.325               11.373              1.785               
C              -0.849              11.68               3.842               
C              0.311               11.376              3.163               
H              -3.912              10.259              1.246               
H              -3.064              12.769              0.178               
H              -3.907              12.747              1.577               
H              -0.825              11.656              0.083               
H              -2.858              12.167              3.639               
H              1.165               11.159              1.275               
H              -0.866              11.696              4.856               
H              1.15                11.156              3.67                
N              -6.305              10.648              1.203               
C              -7.762              10.786              1.098               
C              -8.35               11.141              2.412               
O              -7.723              10.913              3.45                
C              -8.427              9.491               0.597               
C              -8.012              9.063               -0.79               
C              -8.351              9.823               -1.909              
C              -7.369              7.853               -0.999              
C              -8.003              9.411               -3.194              
C              -6.999              7.439               -2.276              
C              -7.32               8.221               -3.37               
O              -6.95               7.791               -4.617              
H              -5.838              10.121              1.968               
H              -7.949              11.526              0.438               
H              -8.194              8.759               1.237               
H              -9.417              9.633               0.599               
H              -8.854              10.68               -1.79               
H              -7.163              7.262               -0.218              
H              -8.247              9.976               -3.983              
H              -6.504              6.579               -2.398              
H              -6.368              6.983               -4.529              
N              -9.576              11.678              2.398               
C              -10.259             11.964              3.651               
C              -10.637             10.62               4.26                
O              -10.968             9.675               3.539               
C              -11.507             12.841              3.466               
C              -12.503             12.334              2.433               
C              -13.605             13.32               2.146               
H              -9.967              11.859              1.467               
H              -9.616              12.406              4.263               
H              -11.981             12.91               4.35                
H              -11.211             13.762              3.189               
H              -12.009             12.144              1.582               
H              -12.909             11.484              2.774               
O              -13.698             13.872              1.041               
N              -14.489             13.525              3.12                
H              -15.253             14.187              3.005               
H              -14.388             13.004              3.99                
N              -10.518             10.518              5.572               
C              -10.821             9.279               6.253               
C              -11.228             9.586               7.665               
O              -11.174             10.753              8.093               
C              -9.622              8.333               6.202               
S              -8.11               9.003               6.94                
H              -10.198             11.379              6.053               
H              -11.593             8.842               5.786               
H              -9.864              7.497               6.69                
H              -9.434              8.121               5.244               
H              -8.189              9.997               7.013               
N              -11.657             8.55                8.386               
C              -12.044             8.727               9.76                
C              -11.151             7.884               10.648              
O              -10.908             6.72                10.33               
C              -13.532             8.361               9.924               
C              -14.098             8.575               11.322              
C              -15.59              8.331               11.456              
O              -16.202             8.933               12.367              
O              -16.149             7.532               10.666              
H              -11.682             7.649               7.88                
H              -11.96              9.693               10.022              
H              -14.046             8.93                9.302               
H              -13.627             7.404               9.705               
H              -13.638             7.949               11.939              
H              -13.926             9.516               11.584              
N              -10.669             8.462               11.762              
C              -9.884              7.727               12.762              
C              -10.87              6.788               13.491              
O              -11.76              7.252               14.207              
C              -9.123              8.664               13.749              
C              -8.395              7.857               14.833              
C              -8.146              9.578               13.005              
H              -10.901             9.474               11.852              
H              -9.225              7.164               12.29               
H              -9.803              9.224               14.211              
H              -9.032              7.656               15.575              
H              -8.059              7.005               14.437              
H              -7.629              8.393               15.181              
H              -8.265              10.515              13.329              
H              -7.213              9.272               13.185              
H              -8.336              9.53                12.026              
N              -10.722             5.483               13.312              
C              -11.674             4.578               13.951              
C              -11.169             4.064               15.299              
O              -11.987             3.708               16.149              
C              -12.19              3.459               13.028              
C              -13.083             4.049               11.935              
C              -11.045             2.65                12.424              
H              -9.941              5.188               12.731              
H              -12.531             5.09                14.117              
H              -12.761             2.855               13.571              
H              -12.519             4.558               11.287              
H              -13.555             3.309               11.459              
H              -13.753             4.662               12.351              
H              -10.509             2.24                13.161              
H              -11.423             1.932               11.841              
H              -10.466             3.257               11.881              
N              -9.859              4.116               15.559              
C              -9.354              3.743               16.877              
C              -7.919              4.157               17.106              
O              -7.145              4.25                16.144              
C              -9.558              2.247               17.198              
C              -8.532              1.315               16.685              
C              -8.638              0.002               17.422              
N              -7.64               -0.921              16.897              
C              -6.86               -1.677              17.647              
N              -6.943              -1.619              18.971              
N              -5.97               -2.481              17.083              
H              -9.267              4.429               14.78               
H              -9.939              4.187               17.582              
H              -9.606              2.166               18.203              
H              -10.458             1.986               16.823              
H              -8.675              1.136               15.718              
H              -7.621              1.679               16.841              
H              -8.464              0.165               18.379              
H              -9.54               -0.369              17.272              
H              -7.541              -0.984              15.895              
H              -7.604              -1.024              19.42               
H              -6.329              -2.187              19.532              
H              -5.906              -2.526              16.082              
H              -5.366              -3.04               17.647              
N              -7.571              4.428               18.382              
C              -6.179              4.692               18.746              
C              -5.609              3.35                19.136              
O              -6.275              2.573               19.816              
C              -5.995              5.697               19.887              
C              -6.722              7.051               19.831              
C              -6.252              7.956               20.99               
C              -6.53               7.769               18.494              
H              -8.355              4.43                19.051              
H              -5.703              5.026               17.95               
H              -6.286              5.244               20.743              
H              -5.008              5.897               19.962              
H              -7.701              6.899               19.915              
H              -5.27               8.104               20.907              
H              -6.734              8.827               20.936              
H              -6.457              7.506               21.855              
H              -6.888              7.197               17.757              
H              -7.021              8.639               18.512              
H              -5.556              7.937               18.346              
N              -4.439              3.01                18.602              
C              -3.909              1.676               18.812              
C              -2.401              1.708               19.078              
O              -1.696              2.477               18.456              
C              -4.262              0.802               17.569              
O              -3.875              -0.534              17.834              
C              -3.599              1.308               16.256              
H              -3.971              3.743               18.056              
H              -4.359              1.27                19.619              
H              -5.269              0.835               17.436              
H              -2.829              0.715               16.033              
H              -4.274              1.282               15.522              
H              -3.281              2.243               16.394              
H              -3.267              -0.881              17.108              
N              -1.922              0.872               19.974              
C              -0.481              0.772               20.237              
C              -0.02               -0.441              19.437              
O              -0.566              -1.535              19.623              
C              -0.195              0.609               21.74               
O              -0.882              1.64                22.45               
C              1.313               0.687               22.067              
H              -2.628              0.298               20.473              
H              -0.039              1.573               19.878              
H              -0.559              -0.29               22.047              
H              1.663               -0.235              22.226              
H              1.795               1.102               21.297              
H              1.443               1.243               22.886              
H              -1.753              1.86                21.996              
N              0.906               -0.231              18.49               
C              1.445               -1.296              17.639              
C              2.891               -1.549              18.04               
O              3.622               -0.595              18.284              
C              1.361               -0.893              16.159              
C              -0.065              -0.708              15.636              
C              -0.971              -1.925              15.618              
O              -0.479              -3.032              15.309              
O              -2.188              -1.763              15.864              
H              1.212               0.768               18.411              
H              0.91                -2.127              17.763              
H              1.827               -0.033              16.057              
H              1.78                -1.608              15.63               
H              -0.509              -0.013              16.206              
H              -0.003              -0.369              14.695              
N              3.31                -2.811              18.105              
C              4.67                -3.127              18.543              
C              5.535               -3.478              17.358              
O              5.184               -4.373              16.581              
C              4.64                -4.275              19.58               
O              3.863               -3.863              20.702              
C              6.045               -4.679              20.057              
H              2.616               -3.522              17.829              
H              5.052               -2.313              18.994              
H              4.191               -5.083              19.155              
H              6.601               -3.858              20.184              
H              5.972               -5.172              20.924              
H              6.471               -5.269              19.372              
H              3.191               -3.165              20.429              
N              6.687               -2.823              17.262              
C              7.697               -3.142              16.271              
C              8.854               -3.773              17.02               
O              9.066               -3.463              18.201              
C              8.163               -1.88               15.527              
C              7.029               -1.295              14.713              
C              6.138               -0.394              15.284              
C              6.795               -1.726              13.409              
C              5.049               0.101               14.56               
C              5.706               -1.221              12.675              
C              4.844               -0.313              13.259              
H              6.801               -2.054              17.967              
H              7.318               -3.843              15.68               
H              8.431               -1.221              16.191              
H              8.874               -2.137              14.914              
H              6.271               -0.09               16.224              
H              7.399               -2.395              12.988              
H              4.424               0.755               14.999              
H              5.568               -1.533              11.724              
H              4.066               0.049               12.738              
N              9.599               -4.653              16.333              
H              9.296               -4.789              15.347              
H              -3.55508            10.5783             -0.34166            
H              10.3817             -5.13316            16.7493             
