274
0.xyz
N              -0.392              18.336              17.011              
C              -1.781              18.48               17.463              
C              -2.426              17.109              17.703              
O              -2.274              16.189              16.895              
C              -2.606              19.295              16.461              
C              -3.843              19.92               17.077              
C              -4.618              20.732              16.075              
H              -0.376              18.033              16.057              
H              -1.772              18.97               18.34               
H              -2.033              20.026              16.096              
H              -2.895              18.691              15.72               
H              -4.43               19.191              17.425              
H              -3.561              20.515              17.827              
H              0.081               19.215              17.085              
H              0.08                17.66               17.578              
O              -4.434              21.951              15.954              
N              -5.515              20.075              15.349              
H              -6.089              20.559              14.659              
H              -5.623              19.072              15.491              
N              -3.129              16.992              18.835              
C              -3.804              15.791              19.312              
C              -4.841              15.26               18.324              
O              -5.729              15.998              17.892              
C              -4.462              16.067              20.663              
O              -5.398              17.13               20.553              
H              -3.155              17.906              19.392              
H              -3.104              15.069              19.442              
H              -4.937              15.248              20.964              
H              -3.759              16.323              21.317              
H              -5.283              17.583              19.671              
N              -4.699              13.979              17.946              
C              -5.631              13.294              17.044              
C              -6.445              12.326              17.9                
O              -5.865              11.522              18.633              
C              -4.895              12.547              15.881              
C              -3.924              13.471              15.089              
C              -5.889              11.82               14.946              
C              -4.532              14.716              14.309              
H              -3.857              13.509              18.356              
H              -6.261              13.984              16.719              
H              -4.352              11.815              16.288              
H              -3.23               13.831              15.727              
H              -3.435              12.909              14.407              
H              -5.375              11.263              14.302              
H              -6.485              11.245              15.496              
H              -6.426              12.499              14.457              
H              -4.976              15.291              14.977              
H              -3.781              15.182              13.87               
H              -5.175              14.362              13.649              
N              -7.774              12.403              17.825              
C              -8.623              11.492              18.607              
C              -9.458              10.568              17.706              
O              -9.7                10.882              16.542              
C              -9.536              12.287              19.571              
O              -10.352             13.17               18.806              
C              -8.756              13.065              20.629              
H              -8.142              13.128              17.196              
H              -8.026              10.915              19.18               
H              -10.139             11.63               20.06               
H              -8.092              12.46               21.072              
H              -8.271              13.828              20.197              
H              -9.388              13.423              21.319              
H              -9.824              13.573              18.049              
N              -9.908              9.427               18.258              
C              -10.78              8.494               17.555              
C              -12.131             9.184               17.302              
O              -12.606             9.956               18.143              
C              -10.953             7.231               18.385              
H              -9.574              9.273               19.237              
H              -10.375             8.266               16.674              
H              -11.862             7.226               18.8                
H              -10.851             6.428               17.798              
H              -10.259             7.206               19.105              
N              -12.661             8.998               16.104              
C              -13.873             9.654               15.636              
C              -13.589             10.869              14.77               
O              -14.472             11.335              14.039              
H              -12.12              8.319               15.501              
H              -14.431             8.99                15.107              
H              -14.431             9.937               16.436              
N              -12.348             11.386              14.822              
C              -11.942             12.567              14.046              
C              -11.827             12.267              12.565              
O              -11.331             11.199              12.185              
C              -10.589             13.116              14.551              
C              -10.387             14.598              14.274              
C              -9.2                15.192              14.991              
H              -11.701             10.876              15.46               
H              -12.657             13.272              14.169              
H              -10.539             12.97               15.538              
H              -9.855              12.608              14.1                
H              -10.261             14.723              13.285              
H              -11.216             15.091              14.558              
O              -8.845              14.809              16.107              
N              -8.562              16.159              14.363              
H              -7.754              16.624              14.788              
H              -8.88               16.447              13.437              
N              -12.237             13.238              11.734              
C              -12.096             13.166              10.293              
C              -10.762             13.826              10.018              
O              -10.481             14.911              10.534              
C              -13.229             13.903              9.544               
C              -14.658             13.468              9.913               
C              -14.971             12                  9.62                
C              -16.441             11.696              9.772               
N              -17.217             12.107              8.571               
H              -12.671             14.056              12.229              
H              -12.053             12.224              10.015              
H              -13.143             14.881              9.739               
H              -13.102             13.749              8.563               
H              -14.8               13.638              10.899              
H              -15.311             14.046              9.403               
H              -14.693             11.799              8.684               
H              -14.455             11.433              10.258              
H              -16.561             10.709              9.917               
H              -16.798             12.184              10.575              
H              -17.89              11.401              8.353               
H              -17.686             12.97               8.758               
H              -16.594             12.225              7.798               
N              -9.905              13.122              9.298               
C              -8.54               13.557              8.966               
C              -8.253              13.223              7.494               
O              -9.101              12.668              6.797               
C              -7.491              12.878              9.906               
C              -7.659              13.302              11.378              
C              -7.502              11.346              9.763               
H              -10.287             12.193              8.968               
H              -8.495              14.547              9.07                
H              -6.587              13.189              9.617               
H              -7.239              12.614              11.964              
H              -7.213              14.183              11.515              
H              -8.631              13.377              11.585              
H              -8.09               10.961              10.47               
H              -7.852              11.11               8.86                
H              -6.571              11.006              9.869               
N              -7.026              13.49               7.053               
C              -6.547              13.155              5.718               
C              -5.404              12.198              5.989               
O              -4.581              12.486              6.864               
C              -6.083              14.433              4.934               
C              -7.297              15.3                4.497               
C              -5.23               14.071              3.713               
C              -7.775              16.369              5.558               
H              -6.418              13.975              7.767               
H              -7.258              12.633              5.292               
H              -5.526              14.977              5.55                
H              -7.06               15.789              3.664               
H              -8.069              14.697              4.315               
H              -4.9                14.908              3.283               
H              -4.456              13.516              4.006               
H              -5.786              13.557              3.065               
H              -7.016              16.979              5.728               
H              -8.544              16.852              5.168               
H              -8.035              15.88               6.377               
N              -5.37               11.039              5.307               
C              -4.265              10.09               5.52                
C              -3.947              9.256               4.266               
O              -4.69               9.308               3.286               
C              -4.525              9.22                6.755               
O              -3.44               8.343               7.035               
H              -6.145              10.885              4.658               
H              -3.438              10.624              5.75                
H              -4.669              9.817               7.544               
H              -5.347              8.674               6.595               
H              -2.597              8.873               7.105               
N              -2.825              8.514               4.289               
C              -2.353              7.692               3.167               
C              -3.142              6.397               2.996               
O              -3.218              5.603               3.918               
C              -0.848              7.405               3.317               
C              -0.067              7.487               2.013               
C              1.428               7.322               2.25                
C              2.219               7.413               0.97                
N              3.665               7.135               1.193               
H              -2.303              8.575               5.202               
H              -2.434              8.236               2.313               
H              -0.469              8.072               3.954               
H              -0.746              6.485               3.689               
H              -0.378              6.761               1.4                 
H              -0.231              8.377               1.589               
H              1.733               8.043               2.871               
H              1.588               6.429               2.666               
H              1.857               6.748               0.309               
H              2.12                8.336               0.584               
H              3.919               6.297               0.712               
H              4.207               7.899               0.844               
H              3.834               7.024               2.172               
N              -3.741              6.196               1.808               
C              -4.531              5.008               1.449               
C              -3.562              3.91                0.975               
O              -2.4                4.22                0.712               
C              -5.526              5.401               0.337               
C              -6.481              4.336               -0.103              
H              -3.59               6.994               1.129               
H              -4.997              4.68                2.262               
H              -6.065              6.2                 0.657               
H              -4.995              5.707               -0.473              
N              -6.202              3.518               -1.19               
C              -7.715              4.034               0.365               
C              -7.25               2.718               -1.313              
N              -8.192              3                   -0.408              
H              -8.188              4.473               1.12                
H              -7.335              1.983               -2.004              
H              -9.064              2.547               -0.316              
N              -4.031              2.648               0.836               
C              -3.174              1.55                0.359               
C              -2.644              1.797               -1.065              
O              -1.605              1.244               -1.423              
C              -3.83               0.156               0.504               
C              -5.107              -0.087              -0.3                
C              -5.724              -1.432              0.077               
C              -7.133              -1.587              -0.431              
N              -7.741              -2.864              0.026               
H              -5.026              2.53                1.091               
H              -2.384              1.462               0.983               
H              -3.149              -0.532              0.228               
H              -4.041              0.018               1.479               
H              -5.76               0.635               -0.098              
H              -4.885              -0.094              -1.268              
H              -5.156              -2.159              -0.311              
H              -5.728              -1.51               1.075               
H              -7.691              -0.822              -0.098              
H              -7.127              -1.569              -1.435              
H              -8.111              -2.745              0.947               
H              -8.477              -3.124              -0.599              
H              -7.043              -3.58               0.036               
N              -3.309              2.69                -1.836              
C              -2.886              3.067               -3.185              
C              -1.728              4.099               -3.196              
O              -1.192              4.387               -4.264              
C              -4.098              3.538               -4.037              
C              -4.428              5.015               -4.012              
O              -5.275              5.53                -4.752              
N              -3.751              5.743               -3.143              
H              -4.16               3.087               -1.371              
H              -2.528              2.234               -3.634              
H              -3.918              3.262               -4.996              
H              -4.909              3.019               -3.72               
H              -3.062              5.323               -2.552              
H              -3.925              6.731               -3.07               
N              -1.384              4.658               -2.022              
C              -0.311              5.643               -1.845              
C              -0.722              7.107               -1.9                
O              0.116               7.999               -1.724              
H              -1.972              4.315               -1.213              
H              0.156               5.461               -0.946              
H              0.412               5.472               -2.558              
N              -2.013              7.376               -2.138              
C              -2.566              8.73                -2.235              
C              -3.168              9.13                -0.888              
O              -3.464              8.253               -0.077              
C              -3.676              8.758               -3.311              
C              -3.221              8.361               -4.733              
C              -2.791              9.564               -5.579              
N              -3.793              10.632              -5.545              
C              -4.755              10.788              -6.448              
N              -4.824              9.982               -7.498              
N              -5.637              11.765              -6.322              
H              -2.607              6.514               -2.251              
H              -1.827              9.366               -2.458              
H              -4.392              8.123               -3.035              
H              -4.04               9.684               -3.358              
H              -2.445              7.736               -4.663              
H              -3.978              7.907               -5.201              
H              -1.933              9.904               -5.212              
H              -2.673              9.251               -6.514              
H              -3.748              11.292              -4.785              
H              -4.173              9.237               -7.619              
H              -5.547              10.122              -8.186              
H              -5.587              12.378              -5.527              
H              -6.349              11.896              -7.007              
N              -3.391              10.433              -0.672              
H              -3.086              11.047              -1.473              
H              -3.80941            10.8035             0.170367            
