368
2.xyz
C              -17.716             1.041               15.908              
C              -18.113             1.368               14.46               
O              -18.953             0.687               13.858              
C              -18.453             1.977               16.873              
C              -19.972             1.902               16.766              
C              -20.658             2.612               17.929              
C              -22.073             3.064               17.577              
N              -22.096             4.023               16.432              
H              -18.027             0.103               16.118              
H              -18.192             1.733               17.803              
H              -18.17              2.913               16.675              
H              -20.26              2.334               15.91               
H              -20.252             0.942               16.764              
H              -20.71              1.985               18.702              
H              -20.123             3.415               18.177              
H              -22.621             2.256               17.34               
H              -22.482             3.505               18.382              
H              -21.965             4.951               16.778              
H              -21.361             3.794               15.796              
H              -22.977             3.958               15.966              
N              -17.508             2.414               13.905              
C              -17.797             2.838               12.539              
C              -17.375             1.777               11.523              
O              -18.14              1.431               10.625              
C              -17.084             4.169               12.202              
O              -17.567             5.198               13.07               
C              -17.34              4.569               10.76               
H              -16.821             2.896               14.52               
H              -18.792             2.98                12.451              
H              -16.085             4.053               12.366              
H              -18.319             4.739               10.621              
H              -16.829             5.404               10.541              
H              -17.045             3.834               10.144              
H              -17.1               5.154               13.96               
N              -16.151             1.276               11.647              
C              -15.661             0.244               10.733              
C              -16.478             -1.025              10.851              
O              -16.746             -1.688              9.854               
C              -14.19              -0.076              10.998              
C              -13.204             0.597               10.044              
C              -13.232             2.104               10.234              
C              -11.798             0.055               10.239              
H              -15.59              1.667               12.423              
H              -15.74              0.593               9.79                
H              -13.971             0.229               11.916              
H              -14.069             -1.055              10.91               
H              -13.459             0.375               9.104               
H              -12.979             2.328               11.176              
H              -12.583             2.534               9.605               
H              -14.153             2.449               10.047              
H              -11.791             -0.93               10.063              
H              -11.172             0.51                9.604               
H              -11.5               0.226               11.179              
N              -16.879             -1.354              12.074              
C              -17.587             -2.602              12.334              
C              -18.885             -2.684              11.541              
O              -19.281             -3.762              11.098              
C              -17.887             -2.754              13.828              
C              -18.333             -4.141              14.223              
C              -19.611             -4.62               14.245              
C              -17.495             -5.216              14.658              
N              -19.619             -5.931              14.662              
C              -18.332             -6.32               14.921              
C              -16.12              -5.358              14.846              
C              -17.837             -7.541              15.366              
C              -15.632             -6.572              15.284              
C              -16.488             -7.645              15.542              
H              -16.649             -0.661              12.811              
H              -16.996             -3.36               12.028              
H              -17.064             -2.555              14.346              
H              -18.619             -2.131              14.077              
H              -20.425             -4.098              13.996              
H              -20.43              -6.505              14.76               
H              -15.497             -4.599              14.667              
H              -18.463             -8.307              15.547              
H              -14.649             -6.681              15.418              
H              -16.091             -8.509              15.864              
N              -19.551             -1.547              11.365              
C              -20.858             -1.527              10.715              
C              -20.764             -1.377              9.196               
O              -21.775             -1.413              8.503               
C              -21.73              -0.41               11.3                
C              -21.246             0.994               10.977              
C              -22.159             2.061               11.566              
C              -21.687             3.456               11.178              
N              -22.65              4.523               11.569              
H              -19.074             -0.699              11.72               
H              -21.339             -2.396              10.922              
H              -22.654             -0.516              10.937              
H              -21.746             -0.518              12.293              
H              -20.324             1.117               11.351              
H              -21.215             1.11                9.982               
H              -23.077             1.928               11.214              
H              -22.146             1.986               12.555              
H              -20.8               3.634               11.623              
H              -21.55              3.486               10.18               
H              -22.675             4.598               12.565              
H              -22.357             5.394               11.175              
H              -23.56              4.289               11.227              
N              -19.549             -1.221              8.681               
C              -19.343             -1.067              7.244               
C              -19.79              -2.31               6.471               
O              -19.651             -3.435              6.953               
C              -17.866             -0.789              6.964               
C              -17.596             -0.262              5.589               
H              -18.777             -1.218              9.374               
H              -19.894             -0.285              6.924               
H              -17.527             -0.116              7.632               
H              -17.345             -1.643              7.083               
N              -17.497             -1.072              4.482               
C              -17.391             1.004               5.15                
C              -17.25              -0.332              3.415               
N              -17.179             0.931               3.795               
H              -17.597             -2.068              4.485               
H              -17.393             1.831               5.704               
H              -17.136             -0.668              2.486               
N              -20.32              -2.092              5.268               
C              -20.744             -3.171              4.374               
C              -19.696             -4.28               4.238               
O              -20.037             -5.461              4.138               
C              -21.049             -2.595              2.985               
C              -21.615             -3.598              1.988               
C              -22.996             -4.091              2.372               
H              -20.408             -1.08               5.015               
H              -21.581             -3.587              4.765               
H              -21.714             -1.849              3.087               
H              -20.199             -2.22               2.601               
H              -21.67              -3.16               1.091               
H              -20.997             -4.383              1.939               
O              -23.764             -3.377              3.015               
N              -23.319             -5.319              1.98                
H              -24.222             -5.722              2.213               
H              -22.642             -5.855              1.438               
N              -18.426             -3.893              4.23                
C              -17.339             -4.818              3.936               
C              -16.594             -5.285              5.187               
O              -15.532             -5.884              5.082               
C              -16.331             -4.169              2.981               
C              -16.901             -3.782              1.64                
C              -18.013             -4.421              1.117               
C              -16.31              -2.77               0.898               
C              -18.523             -4.053              -0.118              
C              -16.817             -2.4                -0.333              
C              -17.925             -3.04               -0.84               
H              -18.277             -2.886              4.449               
H              -17.757             -5.644              3.524               
H              -15.989             -3.347              3.415               
H              -15.6               -4.819              2.825               
H              -18.455             -5.152              1.63                
H              -15.502             -2.3                1.263               
H              -19.333             -4.533              -0.483              
H              -16.366             -1.657              -0.858              
H              -18.301             -2.775              -1.73               
N              -17.153             -5.033              6.366               
C              -16.447             -5.34               7.611               
C              -16.345             -6.833              7.925               
O              -15.398             -7.266              8.574               
C              -17.111             -4.637              8.773               
H              -18.096             -4.616              6.329               
H              -15.502             -4.961              7.547               
H              -17.693             -5.281              9.272               
H              -16.414             -4.276              9.395               
H              -17.673             -3.88               8.435               
N              -17.323             -7.614              7.485               
C              -17.507             -8.953              8.043               
C              -16.31              -9.913              7.918               
O              -16.059             -10.669             8.852               
C              -18.807             -9.599              7.538               
C              -18.892             -9.738              6.051               
C              -19.359             -8.813              5.169               
C              -18.491             -10.871             5.272               
N              -19.271             -9.293              3.888               
C              -18.742             -10.557             3.922               
C              -17.945             -12.119             5.58                
C              -18.474             -11.449             2.885               
C              -17.675             -13.002             4.548               
C              -17.941             -12.663             3.219               
H              -17.917             -7.212              6.747               
H              -17.699             -8.845              9.044               
H              -18.881             -10.512             7.928               
H              -19.576             -9.037              7.83                
H              -19.716             -7.911              5.416               
H              -19.547             -8.804              3.061               
H              -17.75              -12.375             6.524               
H              -18.672             -11.194             1.934               
H              -17.285             -13.893             4.763               
H              -17.733             -13.331             2.501               
N              -15.548             -9.879              6.8                 
C              -14.397             -10.793             6.772               
C              -13.31              -10.436             7.786               
O              -12.423             -11.248             8.037               
C              -13.853             -10.641             5.341               
C              -14.988             -10.044             4.547               
C              -15.681             -9.144              5.527               
H              -14.705             -11.754             6.904               
H              -13.055             -10.033             5.329               
H              -13.589             -11.533             4.966               
H              -14.632             -9.528              3.77                
H              -15.597             -10.765             4.222               
H              -15.233             -8.254              5.59                
H              -16.645             -9.019              5.295               
N              -13.391             -9.231              8.346               
C              -12.378             -8.71               9.256               
C              -12.853             -8.696              10.708              
O              -12.161             -8.183              11.581              
C              -11.993             -7.293              8.815               
C              -11.522             -7.225              7.39                
C              -10.198             -7.457              7.071               
C              -12.417             -6.977              6.363               
C              -9.769              -7.422              5.752               
C              -11.995             -6.94               5.045               
C              -10.675             -7.168              4.74                
H              -14.246             -8.69               8.076               
H              -11.591             -9.343              9.215               
H              -12.792             -6.723              8.902               
H              -11.258             -6.986              9.396               
H              -9.537              -7.654              7.792               
H              -13.385             -6.823              6.577               
H              -8.797              -7.581              5.542               
H              -12.669             -6.742              4.311               
H              -10.363             -7.152              3.787               
N              -14.025             -9.267              10.969              
C              -14.628             -9.211              12.304              
C              -14.191             -10.339             13.241              
O              -14.583             -10.364             14.404              
C              -16.155             -9.187              12.198              
C              -16.708             -7.833              11.795              
C              -18.203             -7.851              11.538              
H              -14.468             -9.746              10.164              
H              -14.348             -8.33               12.732              
H              -16.439             -9.858              11.514              
H              -16.541             -9.431              13.087              
H              -16.52              -7.177              12.529              
H              -16.245             -7.532              10.959              
O              -18.811             -8.903              11.37               
N              -18.803             -6.676              11.5                
H              -19.806             -6.604              11.318              
H              -18.253             -5.832              11.656              
N              -13.383             -11.26              12.732              
C              -12.884             -12.386             13.513              
C              -11.611             -12.894             12.854              
O              -11.347             -12.582             11.693              
C              -13.928             -13.509             13.601              
C              -14.36              -14.085             12.259              
C              -15.257             -13.142             11.479              
H              -13.135             -11.11              11.727              
H              -12.648             -12.053             14.422              
H              -13.547             -14.256             14.153              
H              -14.745             -13.15              14.063              
H              -13.544             -14.272             11.714              
H              -14.857             -14.937             12.422              
O              -16.269             -12.668             11.993              
N              -14.891             -12.866             10.23               
H              -15.45              -12.255             9.645               
H              -14.033             -13.282             9.869               
N              -10.816             -13.684             13.585              
C              -9.617              -14.263             12.975              
C              -9.931              -15.055             11.706              
O              -10.999             -15.65              11.58               
C              -9.09               -15.196             14.07               
C              -9.552              -14.566             15.34               
C              -10.909             -14.003             15.022              
H              -8.931              -13.543             12.783              
H              -9.473              -16.116             13.964              
H              -8.091              -15.25              14.037              
H              -9.611              -15.249             16.073              
H              -8.92               -13.839             15.624              
H              -11.632             -14.674             15.185              
H              -11.097             -13.176             15.553              
N              -8.995              -15.061             10.767              
C              -9.129              -15.896             9.582               
C              -9.148              -17.369             9.991               
O              -8.194              -17.867             10.585              
C              -7.979              -15.635             8.594               
C              -8.005              -16.637             7.447               
C              -8.055              -14.211             8.068               
H              -8.187              -14.44              10.945              
H              -10.006             -15.687             9.146               
H              -7.121              -15.775             9.082               
H              -7.536              -17.475             7.726               
H              -8.953              -16.849             7.211               
H              -7.543              -16.245             6.652               
H              -8.905              -13.787             8.381               
H              -7.273              -13.689             8.411               
H              -8.036              -14.226             7.068               
N              -10.249             -18.053             9.699               
C              -10.345             -19.484             9.957               
C              -9.823              -20.214             8.724               
O              -10.563             -20.465             7.777               
C              -11.79              -19.871             10.268              
C              -11.93              -21.319             10.702              
O              -11.061             -22.137             10.343              
O              -12.909             -21.641             11.409              
H              -11.015             -17.492             9.282               
H              -9.724              -19.695             10.706              
H              -12.115             -19.286             11.002              
H              -12.331             -19.731             9.447               
N              -8.529              -20.509             8.73                
C              -7.872              -21.098             7.571               
C              -8.351              -22.523             7.308               
O              -8.335              -22.987             6.167               
C              -6.361              -21.071             7.752               
H              -8.035              -20.287             9.617               
H              -8.081              -20.535             6.757               
H              -6.088              -21.788             8.393               
H              -5.916              -21.227             6.871               
H              -6.083              -20.18              8.111               
N              -8.773              -23.221             8.355               
C              -9.312              -24.566             8.186               
C              -10.649             -24.503             7.442               
O              -10.831             -25.158             6.413               
C              -9.491              -25.283             9.54                
C              -10.2               -26.616             9.348               
C              -8.139              -25.493             10.212              
H              -8.689              -22.745             9.267               
H              -8.673              -25.094             7.623               
H              -10.082             -24.717             10.105              
H              -11.184             -26.492             9.475               
H              -10.024             -26.958             8.425               
H              -9.859              -27.275             10.018              
H              -7.649              -24.623             10.243              
H              -8.283              -25.833             11.141              
H              -7.611              -26.159             9.687               
N              -11.571             -23.691             7.947               
C              -12.906             -23.593             7.366               
C              -12.849             -23.041             5.943               
O              -13.592             -23.48              5.065               
C              -13.793             -22.701             8.24                
C              -15.244             -22.638             7.796               
C              -16.021             -21.578             8.563               
C              -16.353             -20.391             7.681               
N              -17.645             -19.772             8.064               
H              -11.265             -23.143             8.774               
H              -13.318             -24.512             7.338               
H              -13.764             -23.054             9.174               
H              -13.416             -21.775             8.221               
H              -15.279             -22.419             6.819               
H              -15.674             -23.528             7.951               
H              -16.87              -21.979             8.892               
H              -15.467             -21.264             9.327               
H              -15.622             -19.709             7.764               
H              -16.403             -20.698             6.727               
H              -17.614             -19.503             9.027               
H              -17.809             -18.964             7.498               
H              -18.385             -20.431             7.926               
N              -11.958             -22.082             5.718               
C              -11.859             -21.412             4.426               
C              -10.917             -22.134             3.467               
O              -10.74              -21.704             2.325               
C              -11.392             -19.966             4.613               
C              -12.345             -19.045             5.374               
C              -11.657             -17.728             5.686               
C              -13.617             -18.805             4.572               
H              -11.348             -21.854             6.528               
H              -12.78              -21.386             4.006               
H              -10.532             -19.986             5.116               
H              -11.253             -19.571             3.71                
H              -12.615             -19.49              6.225               
H              -11.382             -17.282             4.833               
H              -12.286             -17.13              6.184               
H              -10.846             -17.897             6.248               
H              -14.076             -19.678             4.405               
H              -14.227             -18.201             5.086               
H              -13.385             -18.378             3.697               
N              -10.324             -23.231             3.929               
H              -10.581             -23.484             4.906               
H              -9.67661            -23.7694            3.36835             
H              -16.6649            1.09778             16.0536             
