279
3.xyz
C              41.202              11.45               34.213              
O              40.572              11.102              33.216              
N              42.339              12.147              34.107              
C              42.893              12.548              32.81               
C              43.477              11.357              32.011              
O              43.24               11.235              30.804              
C              43.935              13.651              33.036              
H              42.79               12.377              35.015              
H              42.156              12.965              32.255              
H              43.572              14.318              33.683              
H              44.769              13.245              33.404              
H              44.133              14.098              32.167              
N              44.206              10.457              32.68               
C              44.818              9.258               32.083              
C              43.754              8.252               31.65               
O              43.751              7.858               30.487              
C              45.847              8.626               33.051              
C              46.284              7.206               32.667              
C              47.111              9.496               33.094              
H              44.311              10.684              33.708              
H              45.326              9.547               31.264              
H              45.41               8.558               33.957              
H              46.847              6.827               33.399              
H              45.474              6.638               32.536              
H              46.811              7.243               31.82               
H              47.62               9.37                32.245              
H              46.843              10.452              33.192              
H              47.67               9.216               33.872              
N              42.814              7.877               32.527              
C              41.733              6.916               32.234              
C              40.836              7.397               31.087              
O              40.52               6.604               30.202              
C              40.898              6.615               33.497              
C              39.669              5.755               33.194              
C              41.722              5.853               34.545              
H              42.911              8.337               33.471              
H              42.16               6.048               31.951              
H              40.559              7.488               33.853              
H              38.849              6.23                33.509              
H              39.61               5.599               32.209              
H              39.754              4.88                33.668              
H              42.187              6.512               35.132              
H              41.108              5.285               35.088              
H              42.392              5.281               34.076              
N              40.471              8.685               31.038              
C              39.691              9.262               29.921              
C              40.441              9.155               28.588              
O              39.869              8.685               27.602              
C              39.312              10.727              30.221              
C              38.82               11.502              28.991              
C              38.187              10.772              31.261              
H              40.783              9.252               31.856              
H              38.836              8.736               29.84               
H              40.141              11.198              30.544              
H              37.834              11.377              28.898              
H              39.028              12.471              29.11               
H              39.283              11.155              28.178              
H              37.524              10.056              31.053              
H              38.577              10.622              32.168              
H              37.746              11.666              31.223              
N              41.723              9.535               28.553              
C              42.56               9.37                27.36               
C              42.727              7.898               26.967              
O              42.695              7.564               25.781              
H              42.072              9.955               29.439              
H              42.144              9.873               26.588              
H              43.471              9.771               27.533              
N              42.823              7.004               27.959              
C              42.884              5.56                27.751              
C              41.596              5.002               27.134              
O              41.693              4.217               26.201              
C              43.212              4.809               29.061              
C              44.397              3.843               28.888              
C              45.732              4.531               29.174              
C              44.26               2.63                29.803              
H              42.851              7.441               28.916              
H              43.648              5.357               27.12               
H              43.465              5.472               29.732              
H              42.431              4.28                29.308              
H              44.397              3.498               27.947              
H              45.735              4.87                30.114              
H              46.475              3.875               29.052              
H              45.852              5.295               28.542              
H              43.416              2.141               29.583              
H              45.042              2.022               29.669              
H              44.232              2.933               30.756              
N              40.404              5.409               27.592              
C              39.115              4.926               27.047              
C              39.04               5.107               25.531              
O              38.676              4.165               24.832              
C              37.905              5.589               27.746              
C              36.589              5.481               26.959              
C              37.663              4.93                29.107              
H              40.458              6.101               28.372              
H              39.048              3.942               27.249              
H              38.106              6.572               27.836              
H              35.828              5.422               27.601              
H              36.485              6.29                26.384              
H              36.615              4.662               26.39               
H              36.76               4.504               29.106              
H              38.366              4.238               29.263              
H              37.709              5.628               29.819              
N              39.434              6.268               25.005              
C              39.486              6.491               23.56               
C              40.664              5.749               22.892              
O              40.478              5.122               21.849              
C              39.531              8                   23.301              
H              39.698              6.992               25.704              
H              38.628              6.153               23.146              
H              40.332              8.388               23.753              
H              39.588              8.164               22.318              
H              38.703              8.421               23.665              
N              41.864              5.779               23.491              
C              43.07               5.166               22.916              
C              43.001              3.634               22.859              
O              43.107              3.062               21.777              
C              44.312              5.6                 23.702              
C              45.593              4.946               23.212              
C              46.245              5.446               22.068              
C              46.108              3.811               23.872              
C              47.416              4.826               21.596              
C              47.271              3.178               23.394              
C              47.933              3.689               22.258              
O              49.049              3.079               21.776              
H              41.868              6.28                24.41               
H              43.174              5.509               21.967              
H              44.412              6.584               23.611              
H              44.183              5.35                24.655              
H              45.881              6.233               21.594              
H              45.652              3.459               24.673              
H              47.886              5.187               20.794              
H              47.627              2.372               23.854              
H              48.794              2.227               21.317              
N              42.805              2.968               24.002              
C              42.699              1.506               24.124              
C              41.585              0.97                23.229              
O              41.797              -0.018              22.524              
C              42.472              1.105               25.603              
C              43.776              1.178               26.418              
C              41.824              -0.268              25.768              
C              44.822              0.089               26.149              
H              42.729              3.604               24.847              
H              43.559              1.135               23.768              
H              41.826              1.753               25.999              
H              44.203              2.076               26.25               
H              43.534              1.144               27.398              
H              41.617              -0.423              26.732              
H              40.981              -0.302              25.236              
H              42.453              -0.972              25.444              
H              45.092              0.133               25.192              
H              45.61               0.25                26.735              
H              44.42               -0.799              26.351              
N              40.427              1.636               23.217              
C              39.325              1.256               22.349              
C              39.716              1.323               20.875              
O              39.566              0.334               20.163              
C              38.117              2.149               22.641              
H              40.388              2.441               23.878              
H              39.052              0.306               22.563              
H              37.378              1.592               23.016              
H              38.377              2.851               23.302              
H              37.814              2.582               21.794              
N              40.286              2.444               20.426              
C              40.731              2.587               19.042              
C              41.846              1.597               18.677              
O              41.809              1.005               17.599              
C              41.143              4.041               18.783              
C              41.155              4.434               17.32               
C              42.303              5.011               16.744              
C              39.992              4.272               16.542              
C              42.284              5.422               15.397              
C              39.976              4.674               15.196              
C              41.122              5.253               14.625              
H              40.383              3.195               21.139              
H              39.942              2.36                18.453              
H              40.496              4.628               19.247              
H              42.059              4.165               19.136              
H              43.121              5.128               17.278              
H              39.181              3.871               16.948              
H              43.104              5.836               14.997              
H              39.142              4.547               14.647              
H              41.115              5.544               13.674              
N              42.788              1.327               19.591              
C              43.814              0.286               19.432              
C              43.199              -1.102              19.258              
O              43.561              -1.788              18.31               
C              44.827              0.33                20.595              
C              46.222              0.845               20.193              
C              46.244              2.202               19.462              
C              46.432              2.11                17.938              
N              47.75               1.527               17.57               
H              42.73               1.934               20.448              
H              44.366              0.501               18.614              
H              44.467              0.934               21.299              
H              44.93               -0.593              20.952              
H              46.789              0.925               21.029              
H              46.661              0.155               19.596              
H              45.375              2.673               19.643              
H              46.995              2.753               19.838              
H              45.698              1.539               17.562              
H              46.356              3.033               17.553              
H              48.46               2.225               17.664              
H              47.954              0.759               18.177              
H              47.719              1.207               16.624              
N              42.236              -1.508              20.094              
C              41.578              -2.829              19.984              
C              40.57               -2.915              18.827              
O              40.32               -4.01               18.323              
C              40.964              -3.245              21.337              
C              41.973              -4.006              22.217              
C              43.131              -3.138              22.732              
N              44.148              -3.94               23.437              
C              45.363              -3.544              23.775              
N              45.778              -2.325              23.563              
N              46.199              -4.37               24.338              
H              41.985              -0.816              20.832              
H              42.295              -3.53               19.838              
H              40.694              -2.431              21.819              
H              40.203              -3.843              21.162              
H              41.494              -4.384              23.013              
H              42.367              -4.76               21.686              
H              43.55               -2.692              21.95               
H              42.753              -2.466              23.358              
H              43.881              -4.894              23.685              
H              45.168              -1.641              23.149              
H              46.714              -2.052              23.812              
H              45.916              -5.318              24.539              
H              47.128              -4.08               24.58               
N              40.053              -1.782              18.351              
C              39.176              -1.695              17.176              
C              39.925              -1.635              15.832              
O              39.4                -2.125              14.83               
C              38.228              -0.493              17.339              
C              37.111              -0.646              18.337              
C              36.512              -1.812              18.685              
C              36.388              0.398               19.074              
N              35.458              -1.563              19.539              
C              35.302              -0.215              19.768              
C              36.516              1.796               19.211              
C              34.361              0.514               20.505              
C              35.583              2.543               19.966              
C              34.496              1.909               20.589              
H              40.333              -0.926              18.904              
H              38.601              -2.533              17.161              
H              38.768              0.304               17.623              
H              37.803              -0.298              16.45               
H              36.785              -2.721              18.375              
H              34.871              -2.281              19.948              
H              37.28               2.281               18.77               
H              33.599              0.042               20.966              
H              35.71               3.519               20.046              
H              33.83               2.437               21.083              
N              41.156              -1.109              15.798              
C              41.98               -1.002              14.578              
C              43.132              -2.036              14.521              
O              43.791              -2.155              13.483              
C              42.496              0.446               14.421              
C              41.413              1.444               14.015              
H              41.497              -0.77               16.734              
H              41.374              -1.202              13.793              
H              42.881              0.735               15.295              
H              43.207              0.447               13.721              
O              40.286              1.441               14.495              
N              41.709              2.323               13.079              
H              42.628              2.304               12.662              
H              41.042              2.998               12.781              
N              43.359              -2.795              15.604              
C              44.308              -3.927              15.705              
C              44.151              -4.96               14.582              
O              45.179              -5.33               13.968              
C              44.17               -4.614              17.071              
O              45.33               -4.356              17.846              
O              43.174              -5.524              14.143              
H              42.764              -2.501              16.441              
H              45.245              -3.545              15.647              
H              43.38               -4.245              17.535              
H              44.083              -5.588              16.929              
H              46.041              -3.969              17.261              
H              40.8607             11.1422             35.1874             
