375
0.xyz
N              -21.735             -17.959             9.625               
C              -22.459             -16.695             9.567               
C              -21.642             -15.603             8.88                
O              -20.411             -15.649             8.869               
C              -22.845             -16.241             10.968              
C              -24.161             -16.789             11.453              
C              -25.147             -15.681             11.749              
O              -24.919             -14.547             11.27               
O              -26.145             -15.941             12.455              
H              -22.38              -18.726             9.601               
H              -23.329             -16.824             9.068               
H              -22.141             -16.55              11.587              
H              -22.912             -15.257             10.956              
H              -24.547             -17.348             10.747              
H              -24.01              -17.28              12.287              
H              -21.112             -18.034             8.843               
H              -21.201             -18.01              10.472              
N              -22.337             -14.626             8.311               
C              -21.702             -13.503             7.636               
C              -21.743             -12.254             8.51                
O              -22.708             -12.017             9.241               
C              -22.382             -13.213             6.299               
C              -22.253             -14.346             5.289               
C              -22.787             -13.962             3.921               
O              -23.565             -12.988             3.833               
O              -22.427             -14.634             2.936               
H              -23.374             -14.732             8.389               
H              -20.745             -13.731             7.423               
H              -23.34              -13.077             6.472               
H              -21.956             -12.419             5.91                
H              -21.302             -14.56              5.188               
H              -22.78              -15.108             5.611               
N              -20.69              -11.443             8.413               
C              -20.549             -10.255             9.247               
C              -19.978             -9.111              8.425               
O              -19.248             -9.334              7.459               
C              -19.626             -10.515             10.436              
C              -20.108             -11.594             11.345              
C              -20.928             -11.29              12.422              
C              -19.738             -12.912             11.134              
C              -21.371             -12.279             13.276              
C              -20.188             -13.912             11.982              
C              -21.008             -13.589             13.053              
H              -19.988             -11.729             7.7                 
H              -21.472             -9.981              9.525               
H              -18.743             -10.781             10.078              
H              -19.562             -9.675              10.956              
H              -21.203             -10.343             12.582              
H              -19.144             -13.144             10.365              
H              -21.958             -12.035             14.06               
H              -19.915             -14.872             11.817              
H              -21.338             -14.312             13.666              
N              -20.29              -7.879              8.843               
C              -19.776             -6.698              8.155               
C              -18.269             -6.568              8.339               
O              -17.75              -6.704              9.447               
C              -20.475             -5.438              8.672               
H              -20.907             -7.842              9.67                
H              -19.973             -6.785              7.17                
H              -21.286             -5.26               8.118               
H              -20.743             -5.576              9.624               
H              -19.848             -4.664              8.609               
N              -17.565             -6.272              7.246               
C              -16.112             -6.107              7.26                
C              -15.783             -4.622              7.281               
O              -16.316             -3.846              6.475               
C              -15.451             -6.783              6.048               
C              -13.943             -6.541              6.064               
C              -15.721             -8.282              6.047               
H              -18.14              -6.168              6.38                
H              -15.76              -6.516              8.101               
H              -15.804             -6.349              5.226               
H              -13.764             -5.56               6                   
H              -13.559             -6.896              6.915               
H              -13.524             -7.009              5.287               
H              -15.352             -8.684              6.885               
H              -16.707             -8.439              6.004               
H              -15.279             -8.696              5.252               
N              -14.896             -4.227              8.195               
C              -14.466             -2.834              8.251               
C              -13.349             -2.571              7.247               
O              -13.446             -1.654              6.424               
C              -14.019             -2.478              9.67                
C              -13.624             -1.017              9.806               
C              -13.264             -0.645              11.237              
O              -13.82              -1.262              12.17               
O              -12.419             0.258               11.433              
H              -14.558             -4.963              8.829               
H              -15.246             -2.23               8.05                
H              -14.774             -2.64               10.271              
H              -13.234             -3.021              9.882               
H              -12.831             -0.858              9.252               
H              -14.388             -0.462              9.541               
N              -12.298             -3.385              7.267               
C              -11.207             -3.172              6.328               
C              -10.338             -4.414              6.24                
O              -10.304             -5.246              7.149               
C              -10.346             -1.977              6.732               
C              -9.629              -2.186              8.05                
C              -8.957              -0.915              8.535               
C              -8.37               -1.136              9.917               
N              -7.862              0.135               10.501              
H              -12.326             -4.134              7.965               
H              -11.591             -2.98               5.419               
H              -9.666              -1.829              6.022               
H              -10.937             -1.182              6.816               
H              -10.292             -2.485              8.741               
H              -8.932              -2.897              7.936               
H              -8.225              -0.68               7.913               
H              -9.63               -0.193              8.588               
H              -9.079              -1.513              10.516              
H              -7.615              -1.792              9.85                
H              -7.409              -0.058              11.371              
H              -7.21               0.553               9.869               
H              -8.628              0.759               10.654              
N              -9.603              -4.49               5.137               
C              -8.604              -5.528              4.923               
C              -7.27               -5.02               5.458               
O              -6.786              -3.963              5.043               
C              -8.507              -5.886              3.436               
C              -9.82               -6.537              2.985               
C              -7.306              -6.78               3.186               
C              -9.884              -6.821              1.513               
H              -9.803              -3.74               4.434               
H              -8.867              -6.296              5.498               
H              -8.39               -5.048              2.922               
H              -9.934              -7.391              3.493               
H              -10.569             -5.921              3.232               
H              -7.232              -6.978              2.209               
H              -6.475              -6.319              3.493               
H              -7.414              -7.636              3.69                
H              -9.144              -7.444              1.257               
H              -10.763             -7.244              1.289               
H              -9.788              -5.967              1                   
N              -6.678              -5.766              6.385               
C              -5.44               -5.352              7.026               
C              -4.22               -5.938              6.332               
O              -3.191              -5.27               6.215               
C              -5.473              -5.726              8.518               
C              -6.51               -4.852              9.214               
C              -4.107              -5.536              9.14                
C              -6.744              -5.247              10.619              
H              -7.17               -6.655              6.607               
H              -5.383              -4.351              6.913               
H              -5.762              -6.667              8.59                
H              -6.193              -3.905              9.176               
H              -7.364              -4.922              8.699               
H              -4.139              -5.786              10.108              
H              -3.439              -6.115              8.673               
H              -3.828              -4.579              9.056               
H              -5.892              -5.178              11.147              
H              -7.432              -4.648              11.04               
H              -7.074              -6.195              10.664              
N              -4.321              -7.163              5.833               
C              -3.156              -7.815              5.263               
C              -3.629              -8.935              4.349               
O              -4.804              -9.302              4.338               
C              -2.232              -8.334              6.37                
C              -0.775              -8.358              5.953               
O              -0.486              -8.352              4.734               
O              0.08                -8.401              6.856               
H              -5.257              -7.588              5.885               
H              -2.688              -7.145              4.688               
H              -2.331              -7.735              7.156               
H              -2.516              -9.258              6.598               
N              -2.686              -9.471              3.579               
C              -2.954              -10.534             2.622               
C              -1.811              -11.531             2.7                 
O              -0.667              -11.154             2.967               
C              -3.096              -9.973              1.196               
C              -3.273              -10.997             0.098               
C              -2.869              -10.384             -1.259              
N              -3.269              -11.208             -2.398              
C              -2.508              -12.156             -2.94               
N              -1.304              -12.408             -2.445              
N              -2.951              -12.859             -3.975              
H              -1.732              -9.06               3.722               
H              -3.801              -10.994             2.874               
H              -3.891              -9.361              1.187               
H              -2.272              -9.437              0.996               
H              -2.687              -11.776             0.26                
H              -4.222              -11.266             0.032               
H              -3.305              -9.489              -1.325              
H              -1.876              -10.278             -1.255              
H              -4.178              -11.048             -2.798              
H              -0.957              -11.912             -1.654              
H              -0.728              -13.115             -2.875              
H              -3.873              -12.682             -4.332              
H              -2.377              -13.556             -4.394              
N              -2.125              -12.805             2.503               
C              -1.09               -13.827             2.499               
C              -1.576              -14.993             1.666               
O              -2.762              -15.098             1.344               
C              -0.746              -14.295             3.912               
C              -1.791              -15.197             4.53                
C              -1.421              -15.586             5.961               
N              -2.434              -16.455             6.558               
C              -2.436              -16.837             7.834               
N              -1.475              -16.425             8.656               
N              -3.403              -17.62              8.289               
H              -3.128              -12.997             2.359               
H              -0.264              -13.452             2.082               
H              0.114               -14.795             3.873               
H              -0.647              -13.49              4.49                
H              -2.669              -14.727             4.559               
H              -1.871              -16.036             3.997               
H              -0.55               -16.063             5.933               
H              -1.345              -14.751             6.494               
H              -3.178              -16.786             5.967               
H              -0.756              -15.814             8.34                
H              -1.476              -16.736             9.614               
H              -4.142              -17.906             7.673               
H              -3.4                -17.925             9.239               
N              -0.64               -15.861             1.298               
C              -0.955              -17.142             0.683               
C              -0.567              -18.226             1.673               
O              0.544               -18.207             2.219               
C              -0.235              -17.329             -0.66               
C              -0.511              -18.719             -1.204              
C              -0.712              -16.274             -1.642              
H              0.339               -15.545             1.488               
H              -1.938              -17.189             0.541               
H              0.742               -17.27              -0.491              
H              -0.77               -19.328             -0.454              
H              -1.257              -18.677             -1.869              
H              0.311               -19.075             -1.65               
H              -0.279              -16.427             -2.531              
H              -1.706              -16.336             -1.739              
H              -0.464              -15.367             -1.301              
N              -1.496              -19.135             1.939               
C              -1.283              -20.224             2.876               
C              -1.893              -21.48              2.273               
O              -3.063              -21.475             1.883               
C              -1.911              -19.911             4.237               
C              -1.375              -20.754             5.372               
C              -2.126              -20.486             6.659               
N              -3.558              -20.729             6.499               
C              -4.152              -21.898             6.718               
N              -3.439              -22.946             7.117               
N              -5.462              -22.017             6.542               
H              -2.393              -18.999             1.416               
H              -0.305              -20.368             2.995               
H              -1.732              -18.953             4.446               
H              -2.892              -20.067             4.168               
H              -1.475              -21.721             5.148               
H              -0.413              -20.539             5.523               
H              -1.768              -21.091             7.362               
H              -1.981              -19.535             6.912               
H              -4.135              -19.957             6.202               
H              -2.459              -22.87              7.277               
H              -3.897              -23.831             7.261               
H              -6                  -21.218             6.263               
H              -5.911              -22.896             6.687               
N              -1.096              -22.54              2.175               
C              -1.541              -23.784             1.552               
C              -2.127              -23.511             0.172               
O              -3.15               -24.074             -0.225              
C              -2.532              -24.513             2.45                
C              -1.944              -24.845             3.806               
C              -2.903              -25.688             4.626               
C              -2.219              -26.25              5.854               
N              -3.111              -27.189             6.6                 
H              -0.145              -22.409             2.573               
H              -0.751              -24.399             1.452               
H              -3.322              -23.928             2.584               
H              -2.794              -25.36              2.004               
H              -1.093              -25.355             3.679               
H              -1.755              -23.997             4.3                 
H              -3.664              -25.118             4.917               
H              -3.227              -26.443             4.067               
H              -1.391              -26.742             5.574               
H              -1.96               -25.495             6.462               
H              -2.586              -27.636             7.322               
H              -3.867              -26.675             7.002               
H              -3.468              -27.875             5.968               
N              -1.458              -22.635             -0.567              
C              -1.846              -22.31              -1.92               
C              -3.059              -21.425             -2.054              
O              -3.447              -21.113             -3.183              
H              -0.634              -22.207             -0.085              
H              -1.051              -21.863             -2.398              
H              -2.01               -23.183             -2.441              
N              -3.666              -20.989             -0.956              
C              -4.863              -20.168             -1.034              
C              -4.588              -18.765             -0.517              
O              -3.838              -18.582             0.447               
C              -6.012              -20.802             -0.255              
C              -6.863              -21.722             -1.12               
S              -8.193              -22.522             -0.215              
C              -7.259              -23.398             1.041               
H              -3.222              -21.278             -0.066              
H              -5.134              -20.096             -2.001              
H              -5.638              -21.338             0.505               
H              -6.6                -20.078             0.111               
H              -7.234              -21.171             -1.907              
H              -6.243              -22.42              -1.555              
H              -6.336              -23.585             0.702               
H              -7.203              -22.837             1.868               
H              -7.716              -24.262             1.255               
N              -5.186              -17.78              -1.179              
C              -5.087              -16.391             -0.749              
C              -5.987              -16.18              0.455               
O              -7.143              -16.623             0.478               
C              -5.473              -15.441             -1.896              
C              -5.315              -14                 -1.465              
C              -4.64               -15.741             -3.135              
H              -5.722              -18.083             -2.018              
H              -4.143              -16.217             -0.467              
H              -6.438              -15.586             -2.095              
H              -4.934              -13.461             -2.218              
H              -6.207              -13.623             -1.209              
H              -4.698              -13.947             -0.678              
H              -4.871              -15.086             -3.854              
H              -3.67               -15.663             -2.907              
H              -4.838              -16.669             -3.449              
N              -5.453              -15.506             1.465               
C              -6.191              -15.188             2.671               
C              -6.001              -13.718             3                   
O              -4.943              -13.142             2.743               
C              -5.734              -16.031             3.859               
C              -6.079              -17.504             3.766               
C              -5.635              -18.244             5.008               
O              -4.76               -17.714             5.724               
O              -6.17               -19.339             5.276               
H              -4.455              -15.225             1.314               
H              -7.165              -15.378             2.537               
H              -4.75               -15.957             3.918               
H              -6.172              -15.671             4.668               
H              -7.049              -17.59              3.699               
H              -5.602              -17.887             3.005               
N              -7.043              -13.121             3.563               
C              -7.054              -11.713             3.942               
C              -7.24               -11.61              5.444               
O              -8.096              -12.293             6.012               
C              -8.187              -10.953             3.262               
C              -7.979              -10.813             1.787               
C              -7.046              -9.917              1.291               
C              -8.689              -11.598             0.89                
C              -6.839              -9.781              -0.06               
C              -8.491              -11.475             -0.473              
C              -7.56               -10.556             -0.938              
O              -7.347              -10.429             -2.284              
H              -7.868              -13.754             3.715               
H              -6.167              -11.316             3.706               
H              -9.033              -11.45              3.419               
H              -8.237              -10.045             3.663               
H              -6.512              -9.356              1.933               
H              -9.351              -12.262             1.234               
H              -6.165              -9.121              -0.406              
H              -9.007              -12.035             -1.115              
H              -7.329              -11.336             -2.704              
N              -6.463              -10.731             6.07                
C              -6.595              -10.434             7.489               
C              -7.609              -9.312              7.643               
O              -7.399              -8.21               7.119               
C              -5.25               -10.033             8.082               
C              -5.21               -10.056             9.581               
C              -5.513              -11.214             10.282              
C              -4.82               -8.941              10.296              
C              -5.468              -11.249             11.671              
C              -4.759              -8.969              11.686              
C              -5.079              -10.127             12.364              
O              -5.02               -10.156             13.745              
H              -5.751              -10.273             5.455               
H              -6.95               -11.243             7.951               
H              -4.556              -10.665             7.737               
H              -5.038              -9.105              7.775               
H              -5.771              -12.044             9.781               
H              -4.576              -8.101              9.815               
H              -5.717              -12.088             12.158              
H              -4.483              -8.148              12.19               
H              -5.84               -10.602             14.095              
N              -8.708              -9.594              8.334               
H              -8.673              -10.498             8.852               
H              -9.50457            -8.97714            8.34857             
