259
3.xyz
C              -17.439             10.228              -9.645              
C              -16.354             10.458              -10.674             
O              -15.976             9.511               -11.373             
H              -17.137             9.485               -9.003              
H              -18.272             9.856               -10.117             
N              -15.848             11.678              -10.799             
C              -14.783             11.969              -11.748             
C              -13.451             11.456              -11.213             
O              -13.186             11.523              -10.012             
C              -14.703             13.472              -12.001             
C              -15.984             14.059              -12.568             
C              -15.912             15.57               -12.661             
C              -17.25              16.143              -13.128             
N              -17.208             17.616              -13.371             
H              -16.27              12.392              -10.173             
H              -14.981             11.505              -12.616             
H              -14.506             13.925              -11.136             
H              -13.965             13.641              -12.65              
H              -16.137             13.684              -13.484             
H              -16.75              13.805              -11.975             
H              -15.708             15.942              -11.766             
H              -15.217             15.824              -13.319             
H              -17.521             15.677              -13.98              
H              -17.948             15.945              -12.427             
H              -16.258             17.905              -13.48              
H              -17.721             17.827              -14.201             
H              -17.617             18.09               -12.592             
N              -12.602             10.97               -12.118             
C              -11.321             10.372              -11.762             
C              -10.186             11.049              -12.52              
O              -10.363             11.484              -13.66              
C              -11.288             8.882               -12.099             
C              -12.302             8.034               -11.397             
C              -12.228             6.62                -11.941             
N              -13.16              5.753               -11.237             
C              -13.414             4.497               -11.578             
N              -12.805             3.958               -12.625             
N              -14.285             3.788               -10.872             
H              -12.936             11.055              -13.107             
H              -11.167             10.495              -10.776             
H              -11.427             8.79                -13.091             
H              -10.372             8.537               -11.871             
H              -12.108             8                   -10.427             
H              -13.214             8.38                -11.567             
H              -12.462             6.646               -12.904             
H              -11.303             6.287               -11.811             
H              -13.645             6.131               -10.438             
H              -12.138             4.471               -13.158             
H              -13.019             3.008               -12.889             
H              -14.732             4.197               -10.074             
H              -14.496             2.847               -11.133             
N              -9.011              11.108              -11.902             
C              -7.843              11.592              -12.615             
C              -6.661              11.775              -11.687             
O              -6.731              11.495              -10.493             
H              -9.007              10.795              -10.924             
H              -7.598              10.936              -13.344             
H              -8.061              12.474              -13.058             
N              -5.571              12.269              -12.268             
C              -4.324              12.462              -11.528             
C              -4.357              13.759              -10.724             
O              -4.851              14.787              -11.197             
C              -3.136              12.485              -12.496             
C              -3.028              11.259              -13.367             
S              -2.975              9.774               -12.342             
C              -1.437              10.026              -11.457             
H              -5.68               12.502              -13.274             
H              -4.222              11.698              -10.881             
H              -3.219              13.299              -13.089             
H              -2.285              12.578              -11.959             
H              -3.821              11.228              -13.999             
H              -2.193              11.327              -13.939             
H              -0.675              9.672               -12.001             
H              -1.301              11.004              -11.292             
H              -1.471              9.543               -10.581             
N              -3.805              13.716              -9.512              
C              -3.737              14.896              -8.648              
C              -2.312              15.077              -8.128              
O              -1.61               14.081              -7.883              
C              -4.717              14.798              -7.463              
C              -4.382              13.584              -6.588              
C              -6.168              14.756              -7.949              
C              -5.015              13.649              -5.193              
H              -3.432              12.786              -9.237              
H              -3.93               15.684              -9.233              
H              -4.61               15.615              -6.908              
H              -4.705              12.762              -7.045              
H              -3.394              13.535              -6.481              
H              -6.779              14.755              -7.161              
H              -6.35               15.558              -8.513              
H              -6.311              13.928              -8.486              
H              -6.005              13.691              -5.291              
H              -4.756              12.833              -4.684              
H              -4.682              14.463              -4.727              
N              -1.859              16.313              -7.928              
C              -0.509              16.558              -7.406              
C              -0.476              16.377              -5.884              
O              -1.173              17.069              -5.143              
C              -0.224              18.006              -7.812              
C              -1.586              18.655              -7.855              
C              -2.543              17.568              -8.31               
H              0.161               15.955              -7.849              
H              0.36                18.458              -7.137              
H              0.214               18.046              -8.71               
H              -1.84               18.994              -6.946              
H              -1.586              19.422              -8.501              
H              -3.424              17.643              -7.844              
H              -2.686              17.603              -9.3                
N              0.341               15.419              -5.451              
C              0.415               15.09               -4.022              
C              0.792               16.3                -3.16               
O              0.268               16.407              -2.044              
C              1.325               13.889              -3.807              
C              1.427               13.53               -2.329              
C              0.792               12.687              -4.6                
H              0.896               14.946              -6.177              
H              -0.499              14.774              -3.728              
H              2.246               14.138              -4.105              
H              2.078               14.143              -1.882              
H              0.529               13.627              -1.9                
H              1.741               12.585              -2.237              
H              0.415               13.012              -5.465              
H              1.544               12.054              -4.771              
H              0.081               12.236              -4.065              
N              1.681               17.209              -3.58               
C              1.998               18.352              -2.696              
C              0.821               19.285              -2.425              
O              0.913               20.099              -1.49               
C              3.121               19.081              -3.45               
C              3.775               18.007              -4.259              
C              2.643               17.128              -4.699              
H              2.397               18.014              -1.82               
H              2.742               19.795              -4.04               
H              3.768               19.491              -2.807              
H              4.252               18.402              -5.047              
H              4.431               17.497              -3.699              
H              2.222               17.462              -5.544              
H              2.941               16.18               -4.834              
N              -0.267              19.202              -3.197              
C              -1.437              20.048              -2.988              
C              -2.444              19.469              -1.993              
O              -3.483              20.1                -1.759              
C              -2.169              20.291              -4.313              
C              -1.609              21.373              -5.222              
C              -0.263              21.73               -5.198              
C              -2.45               22.042              -6.115              
C              0.231               22.728              -6.06               
C              -1.975              23.018              -6.963              
C              -0.641              23.361              -6.941              
O              -0.196              24.344              -7.802              
H              -0.204              18.487              -3.952              
H              -1.12               20.944              -2.624              
H              -2.173              19.425              -4.831              
H              -3.126              20.532              -4.101              
H              0.364               21.282              -4.569              
H              -3.423              21.799              -6.134              
H              1.195               22.973              -6.036              
H              -2.601              23.482              -7.599              
H              -0.973              24.703              -8.315              
N              -2.2                18.284              -1.43               
C              -3.179              17.62               -0.573              
C              -2.537              17.196              0.747               
O              -1.313              17.188              0.906               
C              -3.837              16.398              -1.261              
C              -4.465              16.792              -2.591              
C              -2.831              15.258              -1.429              
H              -1.268              17.883              -1.652              
H              -3.91               18.277              -0.364              
H              -4.575              16.083              -0.67               
H              -5.451              16.63               -2.555              
H              -4.293              17.761              -2.767              
H              -4.064              16.244              -3.325              
H              -2.945              14.853              -2.335              
H              -1.906              15.622              -1.334              
H              -2.998              14.569              -0.726              
N              -3.401              16.827              1.695               
C              -3.024              16.441              3.052               
C              -3.837              15.222              3.462               
O              -5.007              15.111              3.093               
C              -3.292              17.592              4.039               
C              -2.59               17.461              5.375               
C              -1.182              18.003              5.328               
O              -1.013              19.228              5.519               
O              -0.249              17.208              5.081               
H              -4.407              16.838              1.371               
H              -2.05               16.222              3.083               
H              -2.978              18.424              3.611               
H              -4.264              17.615              4.208               
H              -3.089              17.982              6.039               
H              -2.536              16.509              5.605               
N              -3.223              14.322              4.23                
C              -3.955              13.196              4.794               
C              -5.178              13.691              5.565               
O              -5.128              14.716              6.251               
C              -3.024              12.393              5.705               
C              -3.689              11.291              6.491               
C              -4.049              10.097              5.631               
C              -4.404              8.902               6.511               
N              -5.131              7.843               5.756               
H              -2.216              14.491              4.383               
H              -4.267              12.6                4.048               
H              -2.306              11.988              5.132               
H              -2.597              13.034              6.351               
H              -3.068              10.986              7.223               
H              -4.529              11.648              6.916               
H              -4.836              10.322              5.075               
H              -3.272              9.853               5.07                
H              -3.557              8.516               6.888               
H              -4.98               9.22                7.271               
H              -5.466              7.152               6.395               
H              -5.902              8.253               5.271               
H              -4.509              7.419               5.099               
N              -6.295              12.98               5.421               
C              -7.564              13.42               5.997               
C              -8.183              12.264              6.766               
O              -8.315              11.16               6.227               
C              -8.503              13.945              4.895               
C              -9.92               14.225              5.342               
C              -10.253             15.421              5.996               
C              -10.935             13.307              5.086               
C              -11.561             15.677              6.407               
C              -12.241             13.547              5.498               
C              -12.547             14.731              6.147               
O              -13.845             14.971              6.532               
H              -6.187              12.104              4.875               
H              -7.377              14.162              6.64                
H              -8.112              14.794              4.537               
H              -8.534              13.261              4.165               
H              -9.541              16.1                6.171               
H              -10.722             12.463              4.598               
H              -11.785             16.524              6.878               
H              -12.954             12.868              5.327               
H              -13.94              14.774              7.506               
N              -8.548              12.515              8.028               
C              -9.013              11.456              8.924               
C              -10.386             11.716              9.524               
O              -11.038             10.789              10.014              
C              -8.025              11.261              10.07               
C              -6.636              10.879              9.632               
C              -5.756              10.689              10.85               
N              -4.42               10.24               10.482              
C              -3.454              11.049              10.065              
N              -3.679              12.353              9.962               
N              -2.264              10.552              9.755               
O              -10.842             12.858              9.554               
H              -8.473              13.511              8.31                
H              -9.049              10.583              8.399               
H              -7.97               12.118              10.58               
H              -8.377              10.539              10.663              
H              -6.663              10.024              9.132               
H              -6.246              11.602              9.079               
H              -5.691              11.561              11.326              
H              -6.183              10.007              11.438              
H              -4.217              9.257               10.548              
H              -4.558              12.748              10.211              
H              -2.945              12.958              9.626               
H              -2.094              9.569               9.856               
H              -1.539              11.152              9.423               
H              -17.7098            11.0774             -9.08598            
