375
2.xyz
C              1.208               -10.817             -6.596              
C              1.888               -9.74               -5.744              
O              1.352               -9.345              -4.709              
C              1.724               -12.238             -6.311              
O              1.012               -13.167             -7.138              
C              1.554               -12.643             -4.862              
H              0.234               -10.855             -6.335              
H              2.711               -12.285             -6.556              
H              1.092               -11.912             -4.353              
H              1.003               -13.48              -4.801              
H              2.451               -12.813             -4.445              
H              1.512               -13.325             -7.996              
N              3.055               -9.245              -6.18               
C              3.745               -8.239              -5.398              
C              3.014               -6.899              -5.451              
O              2.936               -6.221              -4.434              
C              5.197               -8.1                -5.878              
C              6.255               -8.944              -5.122              
C              6.116               -10.449             -5.405              
C              7.661               -8.476              -5.46               
H              3.389               -9.628              -7.07               
H              3.779               -8.54               -4.436              
H              5.234               -8.378              -6.833              
H              5.464               -7.148              -5.783              
H              6.148               -8.782              -4.137              
H              6.231               -10.609             -6.383              
H              6.818               -10.943             -4.896              
H              5.211               -10.753             -5.116              
H              7.768               -7.516              -5.197              
H              8.328               -9.032              -4.963              
H              7.818               -8.57               -6.444              
N              2.434               -6.553              -6.611              
C              1.728               -5.28               -6.813              
C              0.55                -5.053              -5.844              
O              0.293               -3.914              -5.436              
C              1.248               -5.161              -8.264              
C              0.797               -3.785              -8.642              
C              -0.461              -3.263              -8.513              
C              1.609               -2.748              -9.202              
N              -0.481              -1.961              -8.958              
C              0.779               -1.62               -9.394              
C              2.969               -2.659              -9.552              
C              1.261               -0.421              -9.934              
C              3.448               -1.468              -10.069             
C              2.6                 -0.372              -10.272             
H              2.529               -7.273              -7.364              
H              2.395               -4.531              -6.653              
H              1.997               -5.405              -8.87               
H              0.477               -5.774              -8.398              
H              -1.251              -3.753              -8.15               
H              -1.276              -1.36               -8.965              
H              3.577               -3.438              -9.429              
H              0.65                0.359               -10.065             
H              4.414               -1.393              -10.3               
H              2.977               0.464               -10.671             
N              -0.174              -6.132              -5.504              
C              -1.338              -6.067              -4.615              
C              -0.993              -6.193              -3.131              
O              -1.886              -6.087              -2.283              
C              -2.405              -7.109              -5.032              
C              -1.98               -8.571              -4.88               
C              -3.083              -9.516              -5.375              
C              -2.672              -10.975             -5.388              
N              -2.621              -11.565             -4.024              
H              0.167               -7.023              -5.93               
H              -1.807              -5.175              -4.762              
H              -3.217              -6.958              -4.468              
H              -2.632              -6.945              -5.993              
H              -1.159              -8.729              -5.42               
H              -1.803              -8.761              -3.92               
H              -3.88               -9.411              -4.775              
H              -3.337              -9.244              -6.306              
H              -3.33               -11.495             -5.947              
H              -1.763              -11.055             -5.815              
H              -1.67               -11.753             -3.779              
H              -3.014              -10.921             -3.368              
H              -3.144              -12.417             -4.011              
N              0.282               -6.406              -2.802              
C              0.69                -6.531              -1.408              
C              0.439               -5.22               -0.668              
O              0.573               -4.145              -1.255              
C              2.156               -6.946              -1.309              
C              2.56                -7.371              0.063               
H              0.934               -6.472              -3.602              
H              0.136               -7.247              -0.975              
H              2.323               -7.71               -1.941              
H              2.734               -6.171              -1.584              
N              2.924               -6.448              1.028               
C              2.626               -8.613              0.596               
C              3.21                -7.154              2.109               
N              3.035               -8.461              1.9                 
H              2.959               -5.479              0.925               
H              2.421               -9.469              0.137               
H              3.524               -6.76               2.988               
N              0.008               -5.31               0.6                 
C              -0.261              -4.126              1.421               
C              0.919               -3.142              1.493               
O              0.706               -1.932              1.635               
C              -0.698              -4.522              2.84                
C              0.375               -5.21               3.683               
C              -0.101              -5.495              5.084               
H              -0.116              -6.283              0.943               
H              -1.044              -3.631              1.005               
H              -0.99               -3.693              3.328               
H              -1.484              -5.146              2.77                
H              0.618               -6.071              3.241               
H              1.173               -4.613              3.725               
O              -0.485              -4.593              5.84                
N              -0.073              -6.76               5.461               
H              -0.367              -7.036              6.404               
H              0.246               -7.469              4.802               
N              2.158               -3.657              1.334               
C              3.365               -2.849              1.428               
C              3.972               -2.482              0.051               
O              5.087               -1.966              -0.013              
C              4.416               -3.563              2.314               
C              4.099               -3.743              3.786               
C              3.222               -2.884              4.439               
C              4.748               -4.717              4.539               
C              2.964               -3.024              5.808               
C              4.485               -4.86               5.904               
C              3.594               -4.016              6.529               
H              2.163               -4.682              1.139               
H              3.107               -1.97               1.863               
H              4.566               -4.474              1.922               
H              5.267               -3.036              2.249               
H              2.766               -2.158              3.934               
H              5.41                -5.323              4.101               
H              2.318               -2.392              6.251               
H              4.96                -5.591              6.423               
H              3.4                 -4.12               7.508               
N              3.231               -2.712              -1.039              
C              3.742               -2.425              -2.392              
C              3.784               -0.952              -2.795              
O              4.642               -0.543              -3.586              
C              2.926               -3.177              -3.416              
H              2.291               -3.099              -0.856              
H              4.694               -2.805              -2.457              
H              3.466               -3.312              -4.249              
H              2.66                -4.07               -3.049              
H              2.1                 -2.657              -3.642              
N              2.844               -0.146              -2.281              
C              2.66                1.209               -2.747              
C              3.948               2.067               -2.772              
O              4.078               2.806               -3.749              
C              1.5                 1.923               -2.003              
C              1.739               2.175               -0.555              
C              1.397               1.367               0.492               
C              2.407               3.301               0.006               
N              1.846               1.909               1.669               
C              2.473               3.098               1.401               
C              2.99                4.456               -0.541              
C              3.071               4.022               2.259               
C              3.606               5.357               0.307               
C              3.643               5.138               1.689               
H              2.273               -0.585              -1.529              
H              2.318               1.172               -3.708              
H              1.345               2.804               -2.444              
H              0.684               1.355               -2.083              
H              0.894               0.508               0.413               
H              1.736               1.505               2.577               
H              2.962               4.624               -1.523              
H              3.077               3.868               3.249               
H              4.028               6.174               -0.075              
H              4.098               5.812               2.273               
N              4.934               2.016               -1.825              
C              6.111               2.898               -1.984              
C              7.003               2.523               -3.157              
O              7.854               3.309               -3.572              
C              6.905               2.676               -0.696              
C              5.87                2.151               0.3                 
C              5.016               1.267               -0.552              
H              5.811               3.868               -2.054              
H              7.627               1.999               -0.828              
H              7.3                 3.529               -0.362              
H              6.326               1.642               1.018               
H              5.355               2.91                0.676               
H              5.439               0.375               -0.702              
H              4.103               1.144               -0.163              
N              6.808               1.305               -3.663              
C              7.618               0.712               -4.727              
C              6.908               0.688               -6.065              
O              7.452               0.163               -7.023              
C              8.022               -0.716              -4.312              
C              8.69                -0.769              -2.96               
C              10.046              -0.489              -2.822              
C              7.956               -1.066              -1.815              
C              10.654              -0.496              -1.556              
C              8.561               -1.066              -0.554              
C              9.899               -0.758              -0.429              
H              5.998               0.791               -3.22               
H              8.434               1.304               -4.835              
H              7.203               -1.258              -4.27               
H              8.659               -1.053              -4.981              
H              10.598              -0.28               -3.62               
H              6.983               -1.282              -1.892              
H              11.64               -0.31               -1.488              
H              8.003               -1.296              0.26                
H              10.328              -0.722              0.476               
N              5.716               1.287               -6.168              
C              4.951               1.266               -7.416              
C              5.325               2.346               -8.434              
O              4.754               2.401               -9.526              
C              3.454               1.33                -7.103              
C              2.934               0.017               -6.548              
C              1.476               0.122               -6.156              
H              5.39                1.757               -5.304              
H              5.11                0.358               -7.861              
H              3.299               2.04                -6.426              
H              2.96                1.533               -7.941              
H              3.027               -0.686              -7.246              
H              3.466               -0.224              -5.742              
O              0.936               1.216               -5.978              
N              0.805               -1.017              -6.039              
H              -0.173              -1.025              -5.766              
H              1.29                -1.894              -6.23               
N              6.316               3.177               -8.101              
C              6.786               4.237               -8.988              
C              8.181               4.659               -8.545              
O              8.557               4.369               -7.404              
C              5.823               5.449               -8.974              
C              5.561               6.057               -7.597              
C              4.623               5.219               -6.763              
H              6.722               3.002               -7.155              
H              6.857               3.861               -9.91               
H              6.209               6.165               -9.563              
H              4.942               5.155               -9.359              
H              6.434               6.14                -7.117              
H              5.161               6.964               -7.723              
O              3.554               4.786               -7.234              
N              5.041               4.96                -5.529              
H              4.457               4.407               -4.889              
H              5.941               5.312               -5.225              
N              8.972               5.321               -9.419              
C              10.29               5.798               -8.992              
C              10.24               6.619               -7.714              
O              9.274               7.345               -7.456              
C              10.728              6.699               -10.145             
C              10.069              6.05                -11.363             
C              8.702               5.684               -10.827             
H              10.934              5.017               -8.892              
H              10.39               7.627               -10.028             
H              11.715              6.699               -10.25              
H              10.004              6.704               -12.099             
H              10.577              5.248               -11.633             
H              8.074               6.459               -10.874             
H              8.314               4.907               -11.321             
N              11.314              6.53                -6.936              
C              11.449              7.363               -5.75               
C              11.445              8.831               -6.199              
O              12.264              9.251               -7.031              
C              12.73               7.034               -4.955              
C              13.014              8.112               -3.897              
C              12.622              5.662               -4.3                
H              12.021              5.839               -7.239              
H              10.653              7.221               -5.17               
H              13.496              7.049               -5.59               
H              13.168              7.672               -3.015              
H              13.826              8.626               -4.165              
H              12.229              8.725               -3.837              
H              13.514              5.403               -3.931              
H              11.95               5.702               -3.561              
H              12.332              4.993               -4.984              
N              10.498              9.597               -5.657              
C              10.417              11.012              -5.957              
C              11.158              11.695              -4.811              
O              10.569              12.017              -3.777              
C              8.951               11.443              -6.064              
C              8.775               12.883              -6.473              
O              9.716               13.68               -6.264              
O              7.663               13.237              -6.922              
H              9.848               9.1                 -5.022              
H              10.94               11.177              -6.776              
H              8.511               10.857              -6.742              
H              8.527               11.305              -5.172              
N              12.477              11.874              -4.995              
C              13.362              12.445              -3.965              
C              13.025              13.877              -3.593              
O              13.284              14.296              -2.458              
C              14.817              12.337              -4.402              
H              12.821              11.573              -5.933              
H              13.291              11.865              -3.131              
H              15.382              12.08               -3.619              
H              14.9                11.642              -5.115              
H              15.124              13.218              -4.759              
N              12.442              14.632              -4.539              
C              12.041              16.018              -4.281              
C              10.831              16.033              -3.317              
O              10.871              16.68               -2.258              
C              11.722              16.759              -5.607              
C              11.185              18.177              -5.358              
C              12.951              16.802              -6.512              
H              12.305              14.155              -5.448              
H              12.795              16.485              -3.824              
H              10.996              16.253              -6.068              
H              11.926              18.752              -5.02               
H              10.833              18.548              -6.214              
H              10.453              18.135              -4.681              
H              12.961              17.668              -7.009              
H              13.774              16.724              -5.951              
H              12.909              16.041              -7.158              
N              9.76                15.289              -3.709              
C              8.521               15.228              -2.928              
C              8.786               14.664              -1.546              
O              8.234               15.155              -0.577              
C              7.483               14.37               -3.67               
C              6.076               14.393              -3.07               
C              5.107               13.526              -3.895              
C              4.545               14.252              -5.101              
N              3.617               13.395              -5.887              
H              9.907               14.779              -4.6                
H              8.153               16.16               -2.837              
H              7.425               14.699              -4.613              
H              7.807               13.423              -3.67               
H              6.11                14.034              -2.142              
H              5.737               15.329              -3.064              
H              5.602               12.715              -4.206              
H              4.351               13.25               -3.302              
H              4.052               15.071              -4.789              
H              5.305               14.541              -5.692              
H              3.282               13.907              -6.678              
H              4.103               12.578              -6.198              
H              2.845               13.126              -5.311              
N              9.627               13.628              -1.463              
C              9.905               12.984              -0.187              
C              11.02               13.63               0.661               
O              11.382              13.088              1.711               
C              10.217              11.495              -0.43               
C              9.071               10.718              -1.075              
C              9.545               9.378               -1.658              
C              7.938               10.475              -0.082              
H              10.048              13.337              -2.361              
H              9.047               12.991              0.374               
H              10.993              11.446              -1.037              
H              10.408              11.081              0.444               
H              8.673               11.27               -1.812              
H              9.931               8.821               -0.926              
H              8.767               8.906               -2.068              
H              10.24               9.551               -2.353              
H              7.585               11.353              0.241               
H              7.205               9.966               -0.532              
H              8.283               9.947               0.694               
N              11.57               14.758              0.209               
C              12.652              15.464              0.899               
C              13.823              14.507              1.19                
O              14.256              14.363              2.339               
C              12.152              16.154              2.19                
C              13.186              17.035              2.868               
H              11.157              15.101              -0.693              
H              13.001              16.164              0.271               
H              11.359              16.716              1.951               
H              11.869              15.438              2.831               
O              14.062              17.624              2.228               
N              13.128              17.12               4.185               
H              12.424              16.608              4.687               
H              13.779              17.689              4.686               
N              14.313              13.827              0.135               
C              15.454              12.9                0.25                
C              15.023              11.474              -0.146              
C              13.839              10.859              0.607               
C              13.49               9.512               0.032               
C              14.121              10.755              2.098               
H              13.819              14.012              -0.76               
H              15.818              12.963              1.158               
H              14.782              11.492              -1.117              
H              15.81               10.873              -0.009              
H              13.055              11.476              0.528               
H              14.276              8.893               0.108               
H              12.714              9.117               0.531               
H              13.242              9.606               -0.935              
H              14.293              11.668              2.471               
H              13.331              10.351              2.561               
H              14.925              10.178              2.247               
H              1.2706              -10.5979            -7.63543            
H              16.1958             13.2842             -0.457349           
