296
4.xyz
C              -4.539              -24.168             -11.805             
C              -3.977              -23.039             -10.97              
O              -3.196              -22.238             -11.492             
H              -3.769              -24.621             -12.316             
H              -5.145              -23.773             -12.537             
N              -4.36               -22.927             -9.705              
C              -3.729              -21.976             -8.798              
C              -2.7                -22.725             -7.968              
O              -3.023              -23.743             -7.348              
C              -4.753              -21.326             -7.866              
C              -5.775              -20.453             -8.57               
C              -5.401              -19.26              -9.169              
C              -7.112              -20.821             -8.632              
C              -6.33               -18.463             -9.814              
C              -8.049              -20.028             -9.266              
C              -7.656              -18.851             -9.862              
O              -8.598              -18.076             -10.504             
H              -5.132              -23.562             -9.423              
H              -3.254              -21.289             -9.341              
H              -5.243              -22.05              -7.384              
H              -4.262              -20.757             -7.208              
H              -4.442              -18.968             -9.135              
H              -7.402              -21.682             -8.208              
H              -6.042              -17.604             -10.248             
H              -9.011              -20.309             -9.291              
H              -8.135              -17.348             -11.006             
N              -1.473              -22.218             -7.938              
C              -0.407              -22.867             -7.178              
C              -0.157              -22.228             -5.82               
O              0.698               -22.704             -5.07               
C              0.894               -22.879             -7.984              
O              1.247               -21.541             -8.343              
C              0.745               -23.736             -9.239              
H              -1.341              -21.349             -8.483              
H              -0.669              -23.838             -7.029              
H              1.642               -23.26              -7.402              
H              -0.17               -23.611             -9.626              
H              1.43                -23.464             -9.917              
H              0.876               -24.701             -9.006              
H              0.455               -21.063             -8.738              
N              -0.866              -21.161             -5.491              
C              -0.74               -20.516             -4.195              
C              -2.012              -19.731             -3.944              
O              -2.745              -19.391             -4.877              
C              0.459               -19.564             -4.148              
O              0.246               -18.435             -4.985              
H              -1.517              -20.825             -6.235              
H              -0.67               -21.224             -3.498              
H              0.586               -19.253             -3.212              
H              1.267               -20.051             -4.463              
H              0.505               -18.664             -5.922              
N              -2.264              -19.43              -2.669              
C              -3.397              -18.578             -2.347              
C              -3.241              -17.204             -2.976              
O              -4.232              -16.585             -3.367              
C              -3.562              -18.477             -0.834              
O              -2.551              -17.675             -0.247              
H              -1.622              -19.832             -1.982              
H              -4.227              -19.002             -2.73               
H              -4.453              -18.073             -0.632              
H              -3.514              -19.395             -0.442              
H              -1.865              -17.447             -0.936              
N              -2.009              -16.718             -3.101              
C              -1.784              -15.409             -3.706              
C              -2.296              -15.367             -5.14               
O              -2.856              -14.354             -5.572              
C              -0.291              -15.065             -3.658              
C              0.059               -13.722             -4.293              
C              1.557               -13.419             -4.328              
O              2.371               -14.244             -3.855              
O              1.919               -12.336             -4.843              
H              -1.256              -17.326             -2.746              
H              -2.252              -14.7               -3.162              
H              -0.023              -15.025             -2.713              
H              0.194               -15.762             -4.153              
H              -0.261              -13.729             -5.226              
H              -0.372              -13.008             -3.766              
N              -2.086              -16.442             -5.904              
C              -2.567              -16.457             -7.285              
C              -4.085              -16.373             -7.342              
O              -4.651              -15.707             -8.218              
C              -2.094              -17.722             -8.007              
C              -0.61               -17.777             -8.339              
C              -0.273              -18.894             -9.322              
O              0.834               -18.868             -9.904              
O              -1.123              -19.79              -9.521              
H              -1.584              -17.214             -5.457              
H              -2.167              -15.68              -7.789              
H              -2.297              -18.494             -7.42               
H              -2.593              -17.784             -8.86               
H              -0.355              -16.929             -8.76               
H              -0.112              -17.954             -7.513              
N              -4.762              -17.082             -6.445              
C              -6.214              -17.01              -6.369              
C              -6.67               -15.608             -5.984              
O              -7.578              -15.042             -6.606              
C              -6.713              -18.06              -5.371              
C              -8.178              -17.966             -5.069              
C              -8.626              -17.208             -4.011              
C              -9.114              -18.642             -5.832              
C              -9.972              -17.11              -3.718              
C              -10.465             -18.545             -5.528              
C              -10.882             -17.783             -4.47               
H              -4.182              -17.672             -5.824              
H              -6.567              -17.186             -7.295              
H              -6.535              -18.952             -5.759              
H              -6.215              -17.932             -4.526              
H              -7.967              -16.714             -3.438              
H              -8.819              -19.201             -6.604              
H              -10.264             -16.533             -2.938              
H              -11.138             -19.05              -6.102              
H              -11.864             -17.721             -4.25               
N              -6.044              -15.03              -4.957              
C              -6.429              -13.7               -4.506              
C              -6.23               -12.665             -5.598              
O              -7.011              -11.718             -5.705              
C              -5.628              -13.32              -3.262              
H              -5.292              -15.591             -4.53               
H              -7.406              -13.715             -4.249              
H              -5.882              -13.923             -2.507              
H              -4.653              -13.417             -3.453              
H              -5.828              -12.373             -3.016              
N              -5.187              -12.824             -6.409              
C              -4.951              -11.869             -7.479              
C              -6.102              -11.872             -8.478              
O              -6.497              -10.811             -8.979              
C              -3.622              -12.171             -8.172              
H              -4.596              -13.641             -6.218              
H              -4.875              -10.945             -7.082              
H              -2.954              -12.468             -7.492              
H              -3.758              -12.895             -8.847              
H              -3.292              -11.346             -8.627              
N              -6.666              -13.048             -8.779              
C              -7.841              -13.089             -9.653              
C              -9.063              -12.463             -8.989              
O              -9.815              -11.731             -9.642              
C              -8.153              -14.511             -10.134             
C              -7.451              -14.878             -11.438             
O              -6.852              -13.993             -12.084             
O              -7.514              -16.071             -11.819             
H              -6.224              -13.872             -8.364              
H              -7.626              -12.529             -10.465             
H              -7.859              -15.147             -9.427              
H              -9.135              -14.581             -10.273             
N              -9.266              -12.701             -7.69               
C              -10.372             -12.038             -7.004              
C              -10.241             -10.522             -7.096              
O              -11.198             -9.814              -7.427              
C              -10.434             -12.466             -5.54               
H              -8.614              -13.351             -7.248              
H              -11.236             -12.313             -7.442              
H              -10.908             -13.342             -5.47               
H              -9.506              -12.559             -5.182              
H              -10.928             -11.776             -5.013              
N              -9.061              -10.004             -6.79               
C              -8.882              -8.561              -6.8                
C              -9.01               -8.003              -8.213              
O              -9.469              -6.876              -8.391              
C              -7.566              -8.197              -6.115              
C              -7.504              -8.574              -4.623              
C              -6.126              -8.265              -4.07               
C              -8.587              -7.882              -3.792              
H              -8.323              -10.678             -6.557              
H              -9.598              -8.142              -6.229              
H              -6.836              -8.683              -6.569              
H              -7.446              -7.22               -6.175              
H              -7.693              -9.548              -4.532              
H              -5.934              -7.288              -4.17               
H              -6.089              -8.511              -3.1                
H              -5.436              -8.79               -4.571              
H              -9.487              -8.145              -4.138              
H              -8.5                -8.162              -2.837              
H              -8.476              -6.892              -3.863              
N              -8.658              -8.791              -9.226              
C              -8.854              -8.385              -10.614             
C              -10.338             -8.191              -10.94              
O              -10.718             -7.226              -11.615             
C              -8.202              -9.435              -11.51              
C              -8.258              -9.195              -13.01              
C              -7.665              -7.858              -13.396             
C              -7.542              -10.335             -13.729             
H              -8.241              -9.699              -8.948              
H              -8.382              -7.507              -10.763             
H              -7.236              -9.498              -11.252             
H              -8.65               -10.311             -11.329             
H              -9.219              -9.233              -13.311             
H              -6.705              -7.819              -13.112             
H              -7.72               -7.737              -14.389             
H              -8.171              -7.12               -12.946             
H              -7.992              -11.201             -13.511             
H              -7.577              -10.18              -14.716             
H              -6.588              -10.37              -13.43              
N              -11.199             -9.08               -10.444             
C              -12.641             -8.874              -10.588             
C              -13.021             -7.492              -10.076             
O              -13.747             -6.733              -10.728             
C              -13.427             -9.965              -9.833              
C              -14.924             -9.691              -9.92               
C              -13.115             -11.365             -10.386             
H              -10.777             -9.889              -9.971              
H              -12.866             -8.918              -11.564             
H              -13.177             -9.909              -8.873              
H              -15.427             -10.545             -9.792              
H              -15.185             -9.041              -9.207              
H              -15.141             -9.308              -10.817             
H              -12.163             -11.585             -10.188             
H              -13.718             -12.027             -9.947              
H              -13.268             -11.364             -11.372             
N              -12.568             -7.159              -8.868              
C              -13.014             -5.916              -8.23               
C              -12.352             -4.69               -8.84               
O              -13.003             -3.645              -8.99               
C              -12.814             -6                  -6.722              
C              -13.408             -7.268              -6.136              
C              -14.673             -7.715              -6.541              
C              -12.689             -8.058              -5.272              
C              -15.211             -8.895              -6.063              
C              -13.233             -9.266              -4.784              
C              -14.494             -9.66               -5.196              
H              -11.909             -7.819              -8.442              
H              -14.004             -5.836              -8.411              
H              -11.851             -6.01               -6.538              
H              -13.271             -5.238              -6.307              
H              -15.196             -7.165              -7.193              
H              -11.774             -7.791              -4.978              
H              -16.135             -9.173              -6.365              
H              -12.695             -9.822              -4.141              
H              -14.88              -10.525             -4.846              
N              -11.085             -4.808              -9.226              
C              -10.409             -3.691              -9.876              
C              -11.025             -3.41               -11.242             
O              -11.197             -2.245              -11.626             
C              -8.912              -3.987              -10.005             
C              -8.162              -3.873              -8.686              
O              -8.688              -3.297              -7.715              
O              -7.02               -4.363              -8.632              
H              -10.645             -5.717              -9.034              
H              -10.566             -2.876              -9.309              
H              -8.811              -4.915              -10.349             
H              -8.524              -3.336              -10.649             
N              -11.345             -4.456              -12.005             
C              -12.031             -4.239              -13.274             
C              -13.347             -3.511              -13.05              
O              -13.701             -2.585              -13.786             
C              -12.302             -5.576              -13.97              
C              -11.057             -6.231              -14.54              
H              -11.079             -5.373              -11.638             
H              -11.449             -3.634              -13.827             
H              -12.712             -6.199              -13.304             
H              -12.947             -5.415              -14.718             
O              -10.019             -5.596              -14.716             
N              -11.18              -7.51               -14.883             
H              -12.053             -7.982              -14.767             
H              -10.394             -8.003              -15.261             
N              -14.107             -3.956              -12.049             
C              -15.41              -3.361              -11.79              
C              -15.283             -1.878              -11.467             
O              -16.074             -1.055              -11.95              
C              -16.071             -4.126              -10.649             
S              -17.741             -3.56               -10.25              
H              -13.703             -4.728              -11.499             
H              -15.971             -3.452              -12.622             
H              -16.12              -5.089              -10.906             
H              -15.503             -4.023              -9.834              
H              -17.849             -2.609              -10.54              
N              -14.303             -1.528              -10.638             
C              -14.095             -0.136              -10.246             
C              -13.646             0.722               -11.429             
O              -14.053             1.884               -11.553             
C              -13.07              -0.092              -9.113              
C              -12.821             1.304               -8.574              
C              -11.946             1.322               -7.339              
H              -13.713             -2.312              -10.302             
H              -14.976             0.23                -9.919              
H              -13.398             -0.664              -8.361              
H              -12.201             -0.456              -9.452              
H              -12.375             1.85                -9.288              
H              -13.704             1.723               -8.347              
O              -12.044             0.455               -6.476              
N              -11.088             2.327               -7.246              
H              -10.473             2.417               -6.436              
H              -11.047             3.014               -7.996              
N              -12.813             0.171               -12.309             
C              -12.406             0.92                -13.493             
C              -11.295             0.167               -14.215             
O              -10.128             0.172               -13.385             
C              -10.977             0.788               -15.585             
H              -12.499             -0.781              -12.09              
H              -12.047             1.814               -13.196             
H              -11.58              -0.8                -14.352             
H              -10.3               1.515               -15.471             
H              -10.612             0.083               -16.193             
H              -11.813             1.169               -15.979             
H              -10.184             -0.561              -12.698             
H              -13.2519            1.09163             -14.1587            
H              -5.0791             -24.9061            -11.2758            
