243
3.xyz
C              -9.128              -9.077              -17.626             
O              -9.194              -8.922              -16.397             
N              -10.161             -9.545              -18.32              
C              -11.425             -9.854              -17.644             
C              -11.274             -11.02              -16.677             
O              -10.458             -11.92              -16.875             
C              -12.353             -10.236             -18.806             
C              -11.431             -10.668             -19.913             
C              -10.24              -9.774              -19.774             
H              -11.782             -9.038              -17.169             
H              -12.964             -10.986             -18.539             
H              -12.907             -9.45               -19.09              
H              -11.18              -11.63              -19.798             
H              -11.876             -10.546             -20.801             
H              -9.405              -10.215             -20.103             
H              -10.369             -8.907              -20.258             
N              -12.094             -11.014             -15.625             
C              -12.131             -12.141             -14.7               
C              -13.498             -12.17              -14.031             
O              -14.145             -11.135             -13.883             
C              -11.009             -12.024             -13.659             
C              -10.821             -13.241             -12.75              
S              -10.736             -14.829             -13.589             
C              -9.4                -14.552             -14.751             
H              -12.679             -10.169             -15.529             
H              -12.024             -12.982             -15.225             
H              -10.133             -11.853             -14.141             
H              -11.192             -11.218             -13.071             
H              -9.968              -13.079             -12.178             
H              -11.589             -13.234             -12.049             
H              -9.291              -13.57              -14.909             
H              -8.549              -14.925             -14.379             
H              -9.61               -15.006             -15.618             
N              -13.931             -13.367             -13.626             
C              -15.219             -13.574             -12.979             
C              -15.128             -14.839             -12.127             
O              -14.189             -15.635             -12.257             
C              -16.33              -13.729             -14.014             
C              -16.152             -14.999             -14.797             
O              -15.387             -14.977             -15.788             
O              -16.723             -16.033             -14.379             
H              -13.257             -14.148             -13.817             
H              -15.366             -12.812             -12.354             
H              -17.192             -13.761             -13.534             
H              -16.285             -12.959             -14.628             
N              -16.135             -15.046             -11.273             
C              -16.075             -16.144             -10.306             
C              -16.15              -17.523             -10.963             
O              -15.549             -18.474             -10.448             
C              -17.182             -16.007             -9.261              
C              -17.103             -14.772             -8.39               
C              -15.931             -14.055             -8.196              
C              -18.25              -14.326             -7.746              
C              -15.916             -12.931             -7.374              
C              -18.235             -13.213             -6.937              
C              -17.069             -12.516             -6.752              
H              -16.923             -14.391             -11.353             
H              -15.171             -16.087             -9.854              
H              -18.053             -15.982             -9.74               
H              -17.138             -16.8               -8.663              
H              -15.091             -14.34              -8.646              
H              -19.111             -14.833             -7.878              
H              -15.049             -12.431             -7.243              
H              -19.093             -12.914             -6.478              
H              -17.052             -11.702             -6.164              
N              -16.925             -17.682             -12.04              
C              -16.993             -18.992             -12.688             
C              -15.659             -19.364             -13.32              
O              -15.227             -20.516             -13.236             
C              -18.108             -19.031             -13.737             
O              -17.765             -18.31              -14.902             
H              -17.435             -16.854             -12.35              
H              -17.204             -19.677             -11.981             
H              -18.282             -19.984             -13.982             
H              -18.934             -18.633             -13.338             
H              -17.377             -17.424             -14.647             
N              -14.997             -18.406             -13.963             
C              -13.674             -18.657             -14.518             
C              -12.693             -19.042             -13.416             
O              -11.887             -19.962             -13.589             
C              -13.228             -17.425             -15.312             
O              -14.158             -17.204             -16.378             
C              -11.834             -17.585             -15.889             
H              -15.489             -17.5               -14.031             
H              -13.738             -19.424             -15.166             
H              -13.247             -16.612             -14.7               
H              -11.32              -16.73              -15.785             
H              -11.347             -18.319             -15.409             
H              -11.891             -17.815             -16.864             
H              -14.646             -16.335             -16.242             
N              -12.759             -18.362             -12.271             
C              -11.931             -18.731             -11.122             
C              -12.242             -20.141             -10.645             
O              -11.326             -20.907             -10.331             
C              -12.137             -17.729             -9.984              
C              -11.605             -16.346             -10.311             
S              -12.021             -15.073             -9.095              
C              -11.239             -15.719             -7.625              
H              -13.427             -17.574             -12.267             
H              -10.966             -18.704             -11.412             
H              -13.119             -17.656             -9.787              
H              -11.667             -18.067             -9.163              
H              -10.579             -16.412             -10.429             
H              -11.951             -16.077             -11.248             
H              -10.713             -16.54              -7.855              
H              -10.623             -15.03              -7.239              
H              -11.937             -15.954             -6.946              
N              -13.525             -20.501             -10.56              
C              -13.89              -21.836             -10.103             
C              -13.326             -22.911             -11.03              
O              -12.802             -23.933             -10.567             
C              -15.412             -21.973             -10.016             
C              -15.847             -23.365             -9.606              
C              -17.299             -23.437             -9.169              
N              -17.453             -22.834             -7.85               
C              -17.13              -23.419             -6.699              
N              -16.666             -24.671             -6.658              
N              -17.283             -22.731             -5.578              
H              -14.204             -19.778             -10.836             
H              -13.512             -21.98              -9.18               
H              -15.743             -21.331             -9.339              
H              -15.792             -21.778             -10.908             
H              -15.724             -23.995             -10.379             
H              -15.277             -23.681             -8.84               
H              -17.845             -22.939             -9.825              
H              -17.563             -24.389             -9.13               
H              -17.836             -21.897             -7.804              
H              -16.537             -25.179             -7.508              
H              -16.449             -25.093             -5.78               
H              -17.613             -21.789             -5.593              
H              -17.063             -23.161             -4.694              
N              -13.444             -22.71              -12.345             
C              -12.936             -23.705             -13.282             
C              -11.441             -23.918             -13.097             
O              -10.954             -25.055             -13.162             
C              -13.234             -23.28              -14.719             
C              -14.721             -23.081             -15.069             
C              -15.587             -24.328             -14.951             
O              -16.831             -24.186             -14.929             
O              -15.046             -25.447             -14.893             
H              -13.902             -21.835             -12.62              
H              -13.42              -24.579             -13.143             
H              -12.781             -22.414             -14.882             
H              -12.886             -23.982             -15.324             
H              -15.088             -22.402             -14.449             
H              -14.772             -22.769             -16.008             
N              -10.692             -22.833             -12.9               
C              -9.25               -22.934             -12.709             
C              -8.92               -23.581             -11.37              
O              -8.044              -24.456             -11.283             
C              -8.62               -21.546             -12.828             
C              -7.123              -21.542             -12.644             
C              -6.494              -20.224             -13.047             
N              -5.087              -20.238             -12.666             
C              -4.312              -19.167             -12.564             
N              -4.784              -17.964             -12.827             
N              -3.05               -19.301             -12.18              
H              -11.212             -21.938             -12.895             
H              -8.863              -23.503             -13.445             
H              -8.826              -21.19              -13.734             
H              -9.024              -20.962             -12.13              
H              -6.902              -21.71              -11.681             
H              -6.713              -22.265             -13.205             
H              -6.57               -20.129             -14.024             
H              -6.958              -19.5               -12.568             
H              -4.667              -21.139             -12.463             
H              -5.74               -17.831             -13.089             
H              -4.178              -17.162             -12.764             
H              -2.693              -20.209             -11.949             
H              -2.455              -18.501             -12.118             
N              -9.618              -23.16              -10.315             
C              -9.371              -23.703             -8.985              
C              -9.583              -25.213             -8.96               
O              -8.738              -25.964             -8.459              
C              -10.297             -23.002             -7.991              
C              -10.148             -23.42              -6.539              
C              -8.767              -23.083             -5.982              
C              -11.226             -22.738             -5.725              
H              -10.327             -22.437             -10.52              
H              -8.415              -23.513             -8.732              
H              -10.114             -22.024             -8.044              
H              -11.235             -23.191             -8.265              
H              -10.298             -24.413             -6.463              
H              -8.618              -22.096             -6.039              
H              -8.714              -23.375             -5.027              
H              -8.069              -23.558             -6.516              
H              -12.129             -23.009             -6.064              
H              -11.142             -23.003             -4.762              
H              -11.131             -21.743             -5.802              
N              -10.715             -25.676             -9.49               
C              -11.027             -27.101             -9.442              
C              -9.982              -27.916             -10.177             
O              -9.674              -29.041             -9.772              
C              -12.395             -27.37              -10.053             
C              -13.576             -26.829             -9.263              
C              -14.851             -27.101             -10.019             
C              -13.639             -27.438             -7.867              
H              -11.324             -24.966             -9.919              
H              -11.041             -27.392             -8.477              
H              -12.418             -26.947             -10.953             
H              -12.51              -28.354             -10.128             
H              -13.462             -25.846             -9.139              
H              -14.966             -28.088             -10.151             
H              -15.636             -26.747             -9.504              
H              -14.819             -26.653             -10.915             
H              -12.799             -27.22              -7.37               
H              -14.425             -27.062             -7.375              
H              -13.735             -28.431             -7.941              
N              -9.436              -27.377             -11.261             
C              -8.436              -28.088             -12.049             
C              -7.03               -27.96              -11.478             
O              -6.08               -28.46              -12.089             
C              -8.494              -27.606             -13.507             
C              -9.764              -28.029             -14.232             
C              -9.909              -27.328             -15.565             
N              -11.035             -27.787             -16.37              
C              -12.303             -27.453             -16.169             
N              -12.643             -26.678             -15.151             
N              -13.243             -27.918             -16.979             
H              -9.777              -26.424             -11.494             
H              -8.684              -29.072             -12.076             
H              -8.452              -26.615             -13.507             
H              -7.719              -27.991             -13.991             
H              -9.739              -29.013             -14.395             
H              -10.556             -27.801             -13.669             
H              -10.013             -26.341             -15.389             
H              -9.056              -27.468             -16.084             
H              -10.833             -28.41              -17.144             
H              -11.952             -26.315             -14.529             
H              -13.612             -26.449             -15                 
H              -12.99              -28.504             -17.752             
H              -14.202             -27.686             -16.823             
N              -6.865              -27.331             -10.321             
C              -5.549              -27.194             -9.724              
C              -4.678              -26.14              -10.375             
O              -3.449              -26.187             -10.236             
H              -7.733              -26.959             -9.896              
H              -5.653              -26.975             -8.731              
H              -5.068              -28.096             -9.763              
N              -5.281              -25.182             -11.078             
H              -6.324              -25.227             -11.058             
H              -8.23667            -8.85434            -18.16              
H              -4.76614            -24.4784            -11.5824            
