366
4.xyz
C              19.157              18.143              -51.255             
C              20.392              18.959              -50.893             
O              20.343              20.191              -50.972             
C              17.941              18.658              -50.482             
C              16.637              18.089              -51.01              
H              19.009              18.259              -52.251             
H              18.04               18.394              -49.528             
H              17.912              19.649              -50.565             
O              16.479              17.888              -52.214             
N              15.698              17.824              -50.11              
H              15.871              18.008              -49.14              
H              14.82               17.443              -50.396             
N              21.485              18.307              -50.489             
C              22.789              18.951              -50.339             
C              22.856              19.859              -49.113             
O              23.56               20.871              -49.119             
C              23.155              19.74               -51.601             
C              23.095              18.912              -52.882             
C              24.48               18.649              -53.451             
N              24.636              17.27               -53.907             
C              25.804              16.708              -54.201             
N              26.928              17.403              -54.086             
N              25.851              15.446              -54.606             
H              21.326              17.292              -50.288             
H              23.496              18.232              -50.245             
H              22.516              20.495              -51.693             
H              24.083              20.08               -51.498             
H              22.665              18.033              -52.687             
H              22.565              19.405              -53.568             
H              24.622              19.268              -54.22              
H              25.149              18.837              -52.735             
H              23.806              16.71               -54.005             
H              26.921              18.345              -53.761             
H              27.806              16.972              -54.33              
H              25.002              14.914              -54.67              
H              26.723              15.025              -54.845             
N              22.142              19.496              -48.047             
C              22.121              20.301              -46.831             
C              23.313              20.034              -45.92              
O              23.665              20.905              -45.116             
C              20.809              20.042              -46.084             
C              20.761              20.543              -44.658             
C              20.607              21.894              -44.376             
C              20.837              19.657              -43.593             
C              20.55               22.349              -43.07              
C              20.774              20.1                -42.289             
C              20.631              21.448              -42.031             
O              20.582              21.89               -40.728             
H              21.615              18.61               -48.158             
H              22.145              21.28               -47.099             
H              20.067              20.484              -46.596             
H              20.649              19.051              -46.071             
H              20.536              22.552              -45.129             
H              20.938              18.678              -43.777             
H              20.449              23.329              -42.883             
H              20.832              19.448              -41.53              
H              21.493              21.823              -40.325             
N              23.955              18.87               -46.034             
C              25.057              18.506              -45.139             
C              26.387              18.937              -45.751             
O              27.18               18.133              -46.252             
C              25.034              17.012              -44.846             
C              23.784              16.545              -44.138             
C              23.468              17.01               -42.868             
C              22.926              15.631              -44.733             
C              22.326              16.585              -42.215             
C              21.783              15.198              -44.087             
C              21.488              15.679              -42.83              
O              20.351              15.25               -42.185             
H              23.613              18.256              -46.797             
H              24.936              18.998              -44.275             
H              25.104              16.52               -45.711             
H              25.818              16.792              -44.268             
H              24.079              17.665              -42.416             
H              23.138              15.281              -45.646             
H              22.108              16.935              -41.301             
H              21.173              14.538              -44.53              
H              20.11               15.907              -41.473             
N              26.639              20.247              -45.689             
C              27.905              20.794              -46.167             
C              29.043              20.608              -45.176             
O              30.19               20.94               -45.501             
C              27.788              22.297              -46.489             
C              26.856              22.514              -47.673             
C              27.304              23.08               -45.27              
H              25.88               20.819              -45.285             
H              28.153              20.306              -47.022             
H              28.688              22.618              -46.764             
H              27.389              22.802              -48.469             
H              26.379              21.661              -47.883             
H              26.188              23.222              -47.446             
H              27.252              22.464              -44.485             
H              27.948              23.819              -45.079             
H              26.4                23.46               -45.463             
N              28.766              20.091              -43.98              
C              29.801              19.923              -42.971             
C              29.479              18.713              -42.11              
O              28.349              18.218              -42.092             
C              29.931              21.165              -42.082             
O              28.879              21.213              -41.134             
H              27.774              19.827              -43.838             
H              30.669              19.748              -43.439             
H              30.8                21.125              -41.602             
H              29.888              21.974              -42.657             
H              28.001              21.24               -41.611             
N              30.497              18.239              -41.391             
C              30.295              17.163              -40.427             
C              29.398              17.619              -39.283             
O              28.357              17.012              -39.007             
C              31.649              16.677              -39.901             
C              31.561              15.905              -38.593             
C              32.914              15.404              -38.125             
C              32.769              14.648              -36.817             
N              34.074              14.435              -36.14              
H              31.409              18.687              -41.572             
H              29.854              16.386              -40.893             
H              32.055              16.082              -40.59              
H              32.231              17.475              -39.757             
H              31.175              16.506              -37.886             
H              30.949              15.119              -38.719             
H              33.284              14.79               -38.808             
H              33.513              16.178              -37.979             
H              32.161              15.168              -36.206             
H              32.344              13.755              -37.002             
H              34.286              15.228              -35.568             
H              34.023              13.616              -35.569             
H              34.791              14.318              -36.828             
N              29.796              18.675              -38.59              
C              28.958              19.209              -37.527             
C              27.668              19.717              -38.151             
O              27.55               20.888              -38.526             
C              29.709              20.292              -36.762             
C              28.871              21.464              -36.294             
C              29.69               22.495              -35.545             
C              28.871              23.67               -35.071             
N              29.716              24.648              -34.345             
H              30.709              19.066              -38.858             
H              28.74               18.479              -36.884             
H              30.134              19.867              -35.955             
H              30.44               20.645              -37.358             
H              28.448              21.904              -37.093             
H              28.143              21.126              -35.69              
H              30.11               22.054              -34.748             
H              30.415              22.833              -36.151             
H              28.452              24.12               -35.862             
H              28.148              23.342              -34.459             
H              30.682              24.446              -34.514             
H              29.509              25.572              -34.666             
H              29.531              24.587              -33.364             
N              26.701              18.826              -38.287             
C              25.53               19.091              -39.107             
C              24.874              17.751              -39.372             
O              23.764              17.482              -38.905             
C              25.888              19.771              -40.426             
C              24.939              20.917              -40.743             
C              25.5                21.856              -41.783             
C              23.647              20.32               -41.202             
H              26.847              17.937              -37.767             
H              24.9                19.658              -38.594             
H              26.79               20.143              -40.342             
H              25.81               19.109              -41.141             
H              24.753              21.43               -39.894             
H              25.673              21.357              -42.635             
H              24.847              22.595              -41.963             
H              26.36               22.252              -41.455             
H              23.257              19.739              -40.481             
H              22.988              21.046              -41.423             
H              23.795              19.759              -42.023             
N              25.583              16.899              -40.116             
C              25.215              15.492              -40.198             
C              25.171              14.861              -38.812             
O              24.265              14.08               -38.502             
C              26.215              14.768              -41.096             
C              25.873              13.336              -41.36              
C              24.984              13                  -42.364             
C              26.457              12.321              -40.619             
C              24.669              11.679              -42.618             
C              26.149              10.998              -40.867             
C              25.253              10.676              -41.869             
H              26.388              17.316              -40.61              
H              24.279              15.453              -40.564             
H              26.241              15.244              -41.964             
H              27.099              14.797              -40.649             
H              24.563              13.718              -42.916             
H              27.111              12.552              -39.895             
H              24.012              11.455              -43.35              
H              26.581              10.268              -40.311             
H              25.026              9.718               -42.054             
N              26.145              15.191              -37.962             
C              26.163              14.663              -36.602             
C              24.977              15.182              -35.799             
O              24.314              14.416              -35.09              
C              27.475              15.046              -35.914             
C              28.735              14.7                -36.696             
S              29.307              13.013              -36.431             
C              30.124              13.175              -34.842             
H              26.86               15.832              -38.341             
H              26.089              13.66               -36.653             
H              27.474              16.043              -35.74              
H              27.521              14.58               -35.016             
H              28.551              14.871              -37.695             
H              29.468              15.378              -36.443             
H              29.485              12.934              -34.111             
H              30.914              12.562              -34.808             
H              30.43               14.12               -34.718             
N              24.689              16.481              -35.904             
C              23.619              17.074              -35.109             
C              22.274              16.432              -35.421             
O              21.501              16.116              -34.51              
C              23.558              18.582              -35.35              
H              25.27               17.007              -36.573             
H              23.825              16.931              -34.131             
H              22.73               18.802              -35.863             
H              23.544              19.057              -34.472             
H              24.36               18.867              -35.872             
N              21.971              16.24               -36.707             
C              20.709              15.611              -37.082             
C              20.625              14.188              -36.542             
O              19.62               13.799              -35.937             
C              20.548              15.62               -38.603             
C              20.053              16.954              -39.129             
O              19.816              17.868              -38.311             
O              19.897              17.086              -40.36              
H              22.679              16.563              -37.38              
H              19.971              16.137              -36.643             
H              21.434              15.426              -39.007             
H              19.892              14.917              -38.847             
N              21.676              13.393              -36.75              
C              21.621              12.004              -36.311             
C              21.593              11.911              -34.791             
O              20.936              11.023              -34.235             
C              22.803              11.222              -36.884             
C              22.741              9.695               -36.775             
C              21.319              9.168               -36.885             
C              23.608              9.064               -37.855             
H              22.476              13.824              -37.218             
H              20.778              11.586              -36.67              
H              22.877              11.446              -37.855             
H              23.628              11.52               -36.407             
H              23.131              9.418               -35.89              
H              20.932              9.431               -37.769             
H              21.325              8.17                -36.809             
H              20.761              9.554               -36.15              
H              24.556              9.365               -37.741             
H              23.564              8.067               -37.779             
H              23.276              9.344               -38.757             
N              22.282              12.821              -34.102             
C              22.233              12.828              -32.644             
C              20.846              13.216              -32.143             
O              20.371              12.68               -31.136             
C              23.291              13.78               -32.085             
C              23.495              13.659              -30.579             
C              24.039              12.301              -30.173             
H              22.825              13.486              -34.666             
H              22.426              11.893              -32.322             
H              24.166              13.589              -32.532             
H              23.016              14.722              -32.285             
H              24.142              14.362              -30.287             
H              22.617              13.8                -30.125             
O              25.086              11.868              -30.657             
N              23.323              11.617              -29.287             
H              23.617              10.695              -28.978             
H              22.469              12.034              -28.919             
N              20.185              14.151              -32.832             
C              18.822              14.519              -32.466             
C              17.912              13.298              -32.445             
O              17.046              13.173              -31.571             
C              18.286              15.569              -33.44              
C              16.832              15.965              -33.207             
C              16.66               16.693              -31.883             
N              17.374              17.967              -31.875             
C              17.565              18.717              -30.795             
N              18.227              19.862              -30.895             
N              17.1                18.325              -29.616             
H              20.707              14.571              -33.614             
H              18.832              14.929              -31.545             
H              18.845              16.39               -33.354             
H              18.36               15.204              -34.365             
H              16.533              16.572              -33.938             
H              16.266              15.146              -33.188             
H              15.689              16.858              -31.745             
H              17.018              16.109              -31.161             
H              17.748              18.301              -32.751             
H              18.571              20.189              -31.77              
H              18.385              20.417              -30.066             
H              16.585              17.465              -29.551             
H              17.258              18.876              -28.802             
N              18.091              12.388              -33.405             
C              17.295              11.165              -33.432             
C              17.432              10.416              -32.111             
O              16.439              9.969               -31.525             
C              17.71               10.283              -34.623             
C              17.052              8.915               -34.525             
C              17.352              10.962              -35.936             
H              18.816              12.62               -34.1               
H              16.331              11.421              -33.545             
H              18.693              10.138              -34.565             
H              16.067              9.026               -34.39              
H              17.216              8.404               -35.369             
H              17.439              8.413               -33.751             
H              18.165              11.01               -36.516             
H              16.64               10.433              -36.398             
H              17.017              11.886              -35.75              
N              18.666              10.272              -31.622             
C              18.895              9.528               -30.387             
C              18.35               10.283              -29.178             
O              17.689              9.695               -28.314             
C              20.389              9.248               -30.215             
C              20.997              8.45                -31.34              
C              20.356              7.329               -31.843             
C              22.208              8.827               -31.896             
C              20.915              6.598               -32.877             
C              22.771              8.099               -32.929             
C              22.123              6.984               -33.419             
H              19.413              10.717              -32.175             
H              18.368              8.673               -30.457             
H              20.858              10.118              -30.171             
H              20.507              8.733               -29.379             
H              19.481              7.043               -31.459             
H              22.682              9.638               -31.546             
H              20.432              5.784               -33.227             
H              23.661              8.39                -33.32              
H              22.526              6.454               -34.168             
N              18.615              11.59               -29.099             
C              18.183              12.356              -27.934             
C              16.662              12.438              -27.861             
O              16.083              12.338              -26.773             
C              18.799              13.758              -27.957             
O              18.41               14.443              -29.154             
C              20.32               13.677              -27.894             
H              19.126              11.986              -29.896             
H              18.515              11.89               -27.104             
H              18.445              14.29               -27.159             
H              20.71               14.599              -27.934             
H              20.601              13.237              -27.038             
H              20.663              13.141              -28.668             
H              18.003              13.798              -29.809             
N              15.996              12.616              -29.005             
C              14.537              12.566              -29.026             
C              14.031              11.27               -28.407             
O              13.134              11.277              -27.557             
C              14.02               12.698              -30.46              
C              14.091              14.117              -30.979             
H              16.581              12.784              -29.834             
H              14.206              13.319              -28.447             
H              14.574              12.114              -31.048             
H              13.069              12.397              -30.479             
O              14.346              15.055              -30.225             
N              13.851              14.285              -32.276             
H              13.632              13.494              -32.849             
H              13.888              15.199              -32.679             
N              14.604              10.142              -28.828             
C              14.158              8.847               -28.329             
C              14.453              8.695               -26.841             
O              13.634              8.149               -26.094             
C              14.823              7.731               -29.136             
S              14.579              6.074               -28.473             
H              15.364              10.266              -29.514             
H              13.16               8.785               -28.457             
H              14.452              7.759               -30.065             
H              15.806              7.918               -29.167             
H              13.657              5.997               -28.091             
N              15.612              9.179               -26.388             
H              16.218              9.61                -27.097             
H              19.2822             17.105              -51.0767            
H              15.8451             9.10822             -25.4048            
