281
1.xyz
C              -8.132              -15.387             0.765               
O              -7.585              -14.341             1.089               
N              -9.455              -15.525             0.779               
C              -10.323             -14.441             1.243               
C              -9.986              -14.04              2.684               
O              -9.901              -12.84              3.004               
C              -11.789             -14.867             1.082               
C              -12.117             -15.045             -0.367              
C              -12.716             -13.854             1.76                
C              -13.475             -15.68              -0.585              
H              -9.807              -16.437             0.444               
H              -10.111             -13.645             0.669               
H              -11.901             -15.741             1.548               
H              -12.107             -14.157             -0.821              
H              -11.428             -15.631             -0.79               
H              -13.658             -14.172             1.689               
H              -12.462             -13.767             2.72                
H              -12.625             -12.97              1.307               
H              -14.18              -15.1               -0.179              
H              -13.642             -15.775             -1.565              
H              -13.492             -16.58              -0.153              
N              -9.758              -15.015             3.558               
C              -9.441              -14.782             4.963               
C              -8.072              -14.151             5.135               
O              -7.778              -13.628             6.208               
C              -9.557              -16.075             5.731               
C              -11.023             -16.505             5.952               
C              -11.179             -17.863             6.51                
C              -10.591             -18.018             7.874               
N              -10.631             -19.49              8.224               
H              -9.826              -15.981             3.146               
H              -10.137             -14.161             5.354               
H              -9.107              -16.799             5.223               
H              -9.14               -15.963             6.625               
H              -11.45              -15.823             6.57                
H              -11.499             -16.438             5.058               
H              -12.162             -18.094             6.559               
H              -10.736             -18.532             5.895               
H              -9.65               -17.723             7.877               
H              -11.13              -17.525             8.538               
H              -10.585             -19.584             9.214               
H              -11.482             -19.877             7.88                
H              -9.851              -19.94              7.799               
N              -7.239              -14.181             4.105               
C              -5.909              -13.556             4.126               
C              -5.875              -12.121             3.673               
O              -4.845              -11.452             3.846               
C              -4.972              -14.354             3.244               
O              -4.909              -15.661             3.725               
H              -7.606              -14.69              3.266               
H              -5.572              -13.595             5.092               
H              -5.325              -14.357             2.319               
H              -4.071              -13.944             3.279               
H              -5.725              -16.172             3.443               
N              -6.951              -11.612             3.084               
C              -6.974              -10.297             2.489               
C              -7.097              -9.228              3.577               
O              -7.846              -9.401              4.559               
C              -8.15               -10.193             1.492               
C              -8.068              -8.999              0.618               
H              -7.783              -12.254             3.091               
H              -6.109              -10.143             2.001               
H              -8.154              -11.018             0.92                
H              -9.005              -10.157             2.016               
N              -8.493              -7.732              1.005               
C              -7.521              -8.851              -0.611              
C              -8.211              -6.879              0.045               
N              -7.645              -7.533              -0.952              
H              -8.936              -7.52               1.871               
H              -7.106              -9.57               -1.164              
H              -8.395              -5.896              0.063               
N              -6.398              -8.1                3.424               
C              -6.401              -7.077              4.478               
C              -7.749              -6.484              4.754               
O              -7.997              -6.037              5.875               
C              -5.414              -6.022              3.945               
C              -5.257              -6.307              2.551               
C              -5.519              -7.736              2.312               
H              -5.984              -7.459              5.332               
H              -5.79               -5.095              4.114               
H              -4.542              -6.088              4.458               
H              -5.89               -5.726              1.978               
H              -4.31               -6.057              2.224               
H              -5.982              -7.895              1.436               
H              -4.678              -8.286              2.338               
N              -8.662              -6.518              3.797               
C              -9.982              -5.948              4.002               
C              -10.958             -6.905              4.638               
O              -12.128             -6.539              4.835               
C              -10.56              -5.473              2.682               
O              -9.795              -4.388              2.172               
H              -8.361              -6.973              2.916               
H              -9.881              -5.144              4.62                
H              -10.535             -6.218              2.026               
H              -11.493             -5.166              2.826               
H              -10.071             -3.545              2.629               
N              -10.53              -8.122              4.909               
C              -11.387             -9.11               5.573               
C              -11.627             -8.81               7.046               
O              -12.516             -9.443              7.639               
C              -10.832             -10.507             5.392               
H              -9.553              -8.324              4.62                
H              -12.285             -9.127              5.096               
H              -10.414             -10.59              4.486               
H              -10.14              -10.689             6.092               
H              -11.57              -11.178             5.477               
N              -10.834             -7.939              7.68                
C              -10.858             -7.844              9.134               
C              -12.224             -7.611              9.76                
O              -12.456             -8.146              10.829              
C              -9.83               -6.751              9.614               
C              -10.118             -5.332              9.275               
C              -9.587              -4.575              8.208               
C              -10.964             -4.436              9.974               
N              -10.117             -3.343              8.2                 
C              -10.938             -3.201              9.286               
C              -11.744             -4.547              11.122              
C              -11.662             -2.092              9.71                
C              -12.478             -3.467              11.529              
C              -12.443             -2.245              10.817              
H              -10.233             -7.369              7.071               
H              -10.5               -8.732              9.504               
H              -9.764              -6.823              10.616              
H              -8.934              -6.989              9.219               
H              -8.912              -4.942              7.57                
H              -9.95               -2.625              7.514               
H              -11.768             -5.404              11.641              
H              -11.6               -1.224              9.211               
H              -13.051             -3.533              12.343              
H              -13.009             -1.49               11.146              
N              -13.169             -6.882              9.148               
C              -14.449             -6.721              9.85                
C              -15.281             -7.969              9.841               
O              -16.295             -8.035              10.56               
C              -15.143             -5.601              9.081               
C              -14.085             -4.924              8.281               
C              -13.08              -6.006              7.973               
H              -14.286             -6.394              10.8                
H              -15.864             -5.977              8.479               
H              -15.584             -4.952              9.718               
H              -14.467             -4.543              7.435               
H              -13.66              -4.184              8.808               
H              -13.324             -6.503              7.142               
H              -12.158             -5.63               7.88                
N              -14.956             -8.944              8.991               
C              -15.831             -10.039             8.61                
C              -15.33              -11.386             9.059               
O              -15.886             -12.391             8.673               
C              -16.008             -9.994              7.077               
C              -16.362             -8.621              6.54                
C              -17.562             -8.031              6.859               
C              -15.481             -7.865              5.757               
C              -17.882             -6.783              6.455               
C              -15.82              -6.585              5.321               
C              -17.024             -6.06               5.653               
H              -13.972             -8.846              8.606               
H              -16.72              -9.88               9.079               
H              -15.154             -10.269             6.668               
H              -16.741             -10.61              6.842               
H              -18.226             -8.556              7.419               
H              -14.593             -8.252              5.508               
H              -18.767             -6.365              6.742               
H              -15.152             -6.068              4.757               
H              -17.303             -5.153              5.326               
N              -14.259             -11.398             9.856               
C              -13.619             -12.653             10.205              
C              -14.421             -13.462             11.211              
O              -14.337             -14.695             11.2                
C              -12.225             -12.357             10.767              
C              -11.277             -11.798             9.792               
S              -10.809             -12.933             8.511               
C              -9.653              -13.998             9.344               
H              -13.946             -10.474             10.184              
H              -13.529             -13.208             9.36                
H              -12.332             -11.713             11.547              
H              -11.852             -13.222             11.149              
H              -11.684             -10.933             9.381               
H              -10.435             -11.451             10.296              
H              -9.314              -14.698             8.71                
H              -8.877              -13.461             9.683               
H              -10.102             -14.45              10.119              
N              -15.18              -12.807             12.099              
C              -15.921             -13.469             13.169              
C              -17.28              -12.816             13.309              
O              -17.473             -11.67              12.88               
C              -15.195             -13.395             14.517              
C              -13.858             -14.129             14.512              
C              -13.269             -14.137             15.906              
O              -13.062             -13.022             16.47               
O              -13.021             -15.234             16.411              
H              -15.195             -11.767             11.956              
H              -16.031             -14.439             12.951              
H              -15.015             -12.452             14.708              
H              -15.765             -13.821             15.188              
H              -14.018             -15.05              14.249              
H              -13.247             -13.647             13.932              
N              -18.247             -13.469             13.965              
C              -19.584             -12.872             14.099              
C              -19.578             -11.516             14.789              
O              -18.832             -11.268             15.736              
C              -20.341             -13.897             14.929              
C              -19.636             -15.187             14.671              
C              -18.208             -14.844             14.492              
H              -20.034             -12.809             13.188              
H              -20.309             -13.661             15.906              
H              -21.302             -13.951             14.643              
H              -19.77              -15.818             15.449              
H              -20.016             -15.631             13.846              
H              -17.702             -14.868             15.359              
H              -17.752             -15.453             13.836              
N              -20.455             -10.638             14.333              
C              -20.641             -9.369              15.014              
C              -21.087             -9.644              16.44               
O              -21.909             -10.526             16.691              
C              -21.675             -8.513              14.264              
C              -21.938             -7.205              14.998              
C              -21.226             -8.217              12.843              
H              -20.972             -10.922             13.488              
H              -19.761             -8.898              15.05               
H              -22.535             -9.017              14.251              
H              -21.07              -6.812              15.301              
H              -22.397             -6.564              14.383              
H              -22.52              -7.379              15.792              
H              -20.737             -9.009              12.478              
H              -22.027             -8.027              12.275              
H              -20.62              -7.421              12.846              
N              -20.5               -8.929              17.388              
C              -20.887             -9.065              18.794              
C              -22                 -8.051              19.099              
O              -21.999             -6.947              18.585              
C              -19.691             -8.823              19.724              
C              -18.568             -9.845              19.568              
C              -17.334             -9.396              20.262              
C              -16.367             -10.577             20.367              
N              -16.953             -11.586             21.274              
H              -19.762             -8.281              17.061              
H              -21.243             -9.983              18.948              
H              -19.321             -7.919              19.526              
H              -20.017             -8.858              20.666              
H              -18.879             -10.716             19.955              
H              -18.385             -9.966              18.59               
H              -16.89              -8.685              19.74               
H              -17.548             -9.096              21.178              
H              -16.242             -10.967             19.465              
H              -15.507             -10.252             20.736              
H              -16.778             -12.504             20.915              
H              -16.54              -11.502             22.182              
H              -17.941             -11.441             21.345              
N              -22.903             -8.415              20.006              
C              -23.933             -7.455              20.448              
C              -23.324             -6.222              21.094              
O              -23.892             -5.126              20.996              
C              -24.923             -8.171              21.377              
C              -25.887             -9.068              20.603              
C              -26.856             -9.754              21.509              
C              -28.009             -10.368             20.72               
N              -27.792             -11.797             20.319              
H              -22.828             -9.373              20.357              
H              -24.47              -7.172              19.64               
H              -24.409             -8.734              22.005              
H              -25.45              -7.486              21.857              
H              -26.387             -8.5                19.943              
H              -25.351             -9.752              20.102              
H              -26.395             -10.487             22.001              
H              -27.239             -9.097              22.152              
H              -28.851             -10.312             21.279              
H              -28.162             -9.816              19.885              
H              -26.996             -11.85              19.72               
H              -27.638             -12.345             21.138              
H              -28.601             -12.127             19.837              
N              -22.131             -6.348              21.694              
C              -21.483             -5.164              22.24               
C              -20.309             -5.57               23.126              
O              -19.355             -6.351              22.405              
H              -21.749             -7.293              21.727              
H              -22.163             -4.67               22.81               
H              -19.857             -4.749              23.465              
H              -20.65              -6.111              23.89               
H              -19.831             -6.901              21.723              
H              -7.55058            -16.2162            0.446718            
H              -21.1304            -4.47317            21.4687             
