197
3.xyz
C              27.784              2.263               24.715              
O              27.516              1.759               25.805              
N              27.253              3.425               24.342              
C              26.593              4.25                25.353              
C              25.165              3.764               25.599              
O              24.308              3.914               24.746              
C              26.58               5.717               24.951              
C              25.855              6.55                25.99               
C              25.823              8                   25.562              
C              25.279              8.878               26.663              
N              25.057              10.276              26.155              
H              27.342              3.669               23.36               
H              27.108              4.184               26.214              
H              27.511              6.034               24.888              
H              26.105              5.803               24.092              
H              24.921              6.217               26.082              
H              26.333              6.477               26.86               
H              26.749              8.294               25.346              
H              25.237              8.089               24.763              
H              24.409              8.512               26.983              
H              25.931              8.911               27.417              
H              25.94               10.725              26.047              
H              24.588              10.231              25.276              
H              24.499              10.775              26.813              
N              24.89               3.265               26.804              
C              23.569              2.738               27.134              
C              22.581              3.888               27.316              
O              22.83               4.825               28.102              
C              23.663              1.889               28.404              
C              22.396              1.127               28.721              
H              25.683              3.284               27.474              
H              23.256              2.205               26.346              
H              24.41               1.233               28.288              
H              23.872              2.497               29.172              
O              22.102              0.899               29.898              
N              21.664              0.681               27.702              
H              21.986              0.863               26.765              
H              20.825              0.182               27.861              
N              21.464              3.815               26.575              
C              20.451              4.87                26.544              
C              19.08               4.21                26.53               
O              18.932              3.071               26.096              
C              20.588              5.824               25.313              
C              21.943              6.593               25.315              
C              20.331              5.104               23.977              
H              21.383              2.931               26.019              
H              20.531              5.403               27.381              
H              19.874              6.513               25.384              
H              22.177              6.818               26.254              
H              22.639              6.007               24.915              
H              21.837              7.422               24.776              
H              21.159              5.15                23.423              
H              20.096              4.153               24.164              
H              19.578              5.558               23.507              
N              18.078              4.932               27.007              
C              16.72               4.42                26.962              
C              16.245              4.245               25.523              
O              16.549              5.058               24.638              
C              15.77               5.364               27.728              
H              18.338              5.85                27.396              
H              16.693              3.521               27.418              
H              16.31               5.953               28.323              
H              15.263              5.916               27.071              
H              15.139              4.817               28.272              
N              15.494              3.172               25.299              
C              14.856              2.905               24.028              
C              13.555              3.666               23.923              
O              12.908              3.936               24.927              
C              14.51               1.423               23.891              
S              15.896              0.322               24.032              
H              15.405              2.534               26.13               
H              15.467              3.221               23.293              
H              13.841              1.201               24.605              
H              14.08               1.295               22.993              
N              13.114              3.893               22.675              
C              11.854              4.578               22.426              
C              10.676              3.878               23.089              
O              9.736               4.547               23.538              
C              11.623              4.711               20.912              
C              12.39               5.863               20.293              
C              12.377              5.76                18.78               
C              12.99               7.004               18.163              
N              12.674              7.122               16.702              
H              13.74               3.543               21.928              
H              11.917              5.521               22.792              
H              11.917              3.865               20.481              
H              10.651              4.858               20.762              
H              11.963              6.723               20.563              
H              13.334              5.838               20.612              
H              12.912              4.973               18.505              
H              11.44               5.68                18.469              
H              12.636              7.815               18.637              
H              13.987              6.971               18.277              
H              13.012              6.311               16.229              
H              11.686              7.194               16.587              
H              13.118              7.937               16.337              
N              10.699              2.549               23.169              
C              9.61                1.813               23.801              
C              9.747               1.704               25.322              
O              8.92                1.029               25.963              
C              9.477               0.411               23.174              
C              10.538              -0.556              23.65               
H              11.533              2.099               22.755              
H              8.755               2.33                23.621              
H              8.579               0.049               23.415              
H              9.549               0.508               22.184              
O              11.562              -0.151              24.186              
N              10.293              -1.857              23.451              
H              9.444               -2.134              23.002              
H              10.953              -2.539              23.749              
N              10.749              2.35                25.921              
C              10.933              2.308               27.346              
C              11.847              1.22                27.864              
O              12.152              1.215               29.056              
H              11.369              2.875               25.268              
H              11.29               3.221               27.669              
H              10.013              2.213               27.804              
N              12.264              0.282               27.022              
C              13.212              -0.707              27.477              
C              14.565              -0.052              27.68               
O              14.812              1.076               27.262              
C              13.338              -1.848              26.466              
C              12.177              -2.841              26.505              
C              12.474              -4.012              25.603              
H              11.871              0.327               26.076              
H              12.904              -1.055              28.366              
H              13.381              -1.46               25.545              
H              14.182              -2.354              26.653              
H              12.071              -3.165              27.433              
H              11.361              -2.384              26.186              
O              11.967              -4.081              24.497              
N              13.355              -4.92               26.065              
H              13.59               -5.736              25.519              
H              13.776              -4.76               26.976              
N              15.444              -0.766              28.355              
C              16.75               -0.23               28.687              
C              17.876              -0.779              27.828              
O              19.044              -0.552              28.157              
C              17.062              -0.504              30.16               
O              17.187              -1.92               30.358              
C              15.932              0.018               31.021              
H              15.129              -1.719              28.621              
H              16.723              0.783               28.564              
H              17.954              -0.072              30.398              
H              15.053              -0.116              30.554              
H              15.912              -0.472              31.897              
H              16.06               0.998               31.199              
H              16.691              -2.417              29.639              
N              17.574              -1.525              26.766              
C              18.623              -2.249              26.051              
C              19.067              -1.522              24.779              
O              19.382              -2.168              23.775              
C              18.149              -3.671              25.724              
C              16.943              -3.677              24.82               
H              16.58               -1.544              26.506              
H              19.427              -2.289              26.661              
H              18.895              -4.15               25.272              
H              17.915              -4.124              26.579              
O              16.049              -2.855              24.969              
N              16.927              -4.592              23.84               
H              17.697              -5.225              23.753              
H              16.159              -4.636              23.213              
N              19.1                -0.186              24.79               
C              19.52               0.548               23.606              
C              20.881              1.172               23.839              
O              21.277              1.474               24.966              
C              18.549              1.642               23.197              
S              17.11               0.825               22.402              
H              18.813              0.253               25.675              
H              19.597              -0.1                22.843              
H              18.225              2.097               23.984              
H              18.963              2.209               22.533              
N              21.596              1.367               22.74               
C              22.997              1.775               22.795              
C              23.256              2.735               21.664              
O              22.905              2.462               20.515              
C              23.945              0.566               22.685              
C              23.7                -0.397              23.808              
C              22.707              -1.357              23.716              
C              24.418              -0.288              24.985              
C              22.427              -2.2                24.766              
C              24.16               -1.126              26.042              
C              23.145              -2.071              25.92               
O              22.879              -2.914              26.952              
H              21.083              1.207               21.85               
H              23.15               2.25                23.66               
H              23.765              0.115               21.83               
H              24.869              0.897               22.744              
H              22.179              -1.439              22.863              
H              25.131              0.407               25.064              
H              21.711              -2.894              24.682              
H              24.684              -1.067              26.887              
H              22.286              -3.656              26.636              
N              23.897              3.844               22.001              
H              24.159              3.895               23.018              
H              24.1177             4.57882             21.3446             
H              28.4959             1.76952             24.0875             
