325
5.xyz
C              -26.202             -11                 21.787              
S              -24.994             -10.738             20.435              
H              -27.046             -10.535             21.535              
H              -25.823             -10.595             22.616              
C              -26.514             -26.891             10.932              
O              -26.508             -28.055             11.346              
N              -26.104             -25.857             11.665              
C              -25.468             -26.068             12.957              
C              -25.824             -24.901             13.858              
O              -26.27              -23.847             13.399              
C              -23.933             -26.184             12.836              
C              -23.423             -27.433             12.086              
C              -21.917             -27.39              11.889              
C              -21.184             -28.002             13.079              
N              -19.688             -27.802             13.054              
H              -26.273             -24.928             11.248              
H              -25.821             -26.909             13.361              
H              -23.597             -25.377             12.351              
H              -23.549             -26.202             13.759              
H              -23.662             -28.242             12.62               
H              -23.871             -27.472             11.195              
H              -21.682             -27.908             11.074              
H              -21.629             -26.444             11.795              
H              -21.547             -27.597             13.931              
H              -21.374             -28.995             13.106              
H              -19.267             -28.446             13.687              
H              -19.358             -27.965             12.129              
H              -19.485             -26.867             13.331              
N              -25.629             -25.106             15.161              
C              -25.771             -24.007             16.1                
C              -24.532             -23.135             16.015              
O              -23.415             -23.644             15.921              
C              -25.906             -24.561             17.511              
C              -27.05              -25.519             17.663              
H              -25.381             -26.068             15.424              
H              -26.562             -23.458             15.834              
H              -25.06              -25.041             17.761              
H              -26.047             -23.801             18.153              
N              -28.287             -25.125             18.126              
C              -27.151             -26.841             17.382              
C              -29.104             -26.166             18.123              
N              -28.436             -27.221             17.69               
H              -28.527             -24.2               18.416              
H              -26.432             -27.427             17.022              
H              -30.06              -26.157             18.401              
N              -24.728             -21.819             15.981              
C              -23.574             -20.922             15.922              
C              -23.224             -20.448             17.326              
O              -24.086             -20.381             18.219              
C              -23.767             -19.742             14.954              
C              -24.833             -18.757             15.454              
C              -24.06              -20.285             13.556              
C              -24.82              -17.42              14.703              
H              -25.701             -21.509             15.999              
H              -22.805             -21.476             15.605              
H              -22.9               -19.248             14.892              
H              -25.728             -19.174             15.345              
H              -24.667             -18.576             16.418              
H              -24.1               -19.527             12.909              
H              -23.336             -20.916             13.288              
H              -24.935             -20.764             13.564              
H              -24.991             -17.593             13.737              
H              -25.533             -16.834             15.078              
H              -23.928             -16.993             14.822              
N              -21.945             -20.116             17.535              
C              -21.474             -19.493             18.774              
C              -20.793             -18.186             18.4                
O              -19.823             -18.195             17.631              
C              -20.494             -20.393             19.544              
C              -21.18              -21.72              19.907              
C              -20.02              -19.696             20.825              
C              -20.199             -22.74              20.55               
H              -21.31              -20.341             16.735              
H              -22.287             -19.256             19.292              
H              -19.729             -20.599             18.948              
H              -21.906             -21.542             20.552              
H              -21.544             -22.127             19.083              
H              -19.374             -20.288             21.3                
H              -19.576             -18.836             20.585              
H              -20.806             -19.517             21.411              
H              -19.831             -22.337             21.379              
H              -20.704             -23.568             20.758              
H              -19.474             -22.926             19.899              
N              -21.323             -17.066             18.905              
C              -20.738             -15.757             18.622              
C              -20.366             -15.084             19.937              
O              -20.913             -15.402             20.995              
C              -21.73              -14.89              17.821              
C              -22.031             -15.552             16.465              
C              -23.022             -14.673             18.646              
H              -22.159             -17.208             19.496              
H              -19.9               -15.897             18.097              
H              -21.289             -14.025             17.623              
H              -23.014             -15.7               16.386              
H              -21.719             -14.951             15.733              
H              -21.552             -16.425             16.415              
H              -23.688             -15.364             18.38               
H              -22.799             -14.76              19.612              
H              -23.373             -13.762             18.452              
N              -19.372             -14.197             19.88               
C              -19.036             -13.312             20.998              
C              -19.733             -11.975             20.791              
O              -19.736             -11.437             19.68               
C              -17.522             -13.054             21.097              
H              -18.855             -14.187             18.973              
H              -19.37              -13.722             21.845              
H              -17.078             -13.404             20.276              
H              -17.363             -12.073             21.176              
H              -17.164             -13.521             21.901              
N              -20.295             -11.425             21.871              
C              -21.057             -10.178             21.759              
C              -20.454             -9.122              22.682              
O              -19.92              -9.44               23.755              
C              -22.534             -10.414             22.119              
S              -23.312             -11.664             21.125              
H              -20.151             -11.934             22.752              
H              -20.983             -9.849              20.817              
H              -22.568             -10.687             23.077              
H              -23.013             -9.549              21.994              
N              -20.565             -7.848              22.272              
C              -20.014             -6.726              23.034              
C              -20.838             -5.487              22.743              
O              -21.492             -5.398              21.701              
C              -18.577             -6.371              22.635              
C              -17.563             -7.422              23.031              
C              -16.138             -7.02               22.769              
O              -15.246             -7.577              23.445              
O              -15.895             -6.209              21.862              
H              -21.074             -7.732              21.371              
H              -20.048             -6.935              24.01               
H              -18.555             -6.283              21.657              
H              -18.34              -5.535              23.092              
H              -17.655             -7.589              24.001              
H              -17.746             -8.241              22.508              
N              -20.733             -4.499              23.637              
C              -21.229             -3.157              23.372              
C              -22.636             -2.899              23.88               
O              -23.322             -3.756              24.447              
H              -20.27              -4.775              24.528              
H              -20.593             -2.476              23.792              
H              -21.201             -2.983              22.365              
N              -23.059             -1.655              23.651              
C              -24.423             -1.214              23.929              
C              -24.882             -0.438              22.699              
O              -24.447             0.707               22.496              
C              -24.475             -0.347              25.174              
C              -25.88              -0.013              25.58               
H              -22.326             -1.021              23.254              
H              -24.989             -2.023              23.99               
H              -24.032             -0.839              25.921              
H              -23.982             0.501               24.989              
O              -26.853             -0.423              24.934              
N              -26.003             0.729               26.669              
H              -25.197             1.041               27.17               
H              -26.918             0.985               27                  
N              -25.721             -1.034              21.847              
C              -26.407             -2.314              22.08               
C              -25.465             -3.536              22.002              
O              -24.404             -3.46               21.39               
C              -27.407             -2.383              20.942              
C              -26.755             -1.623              19.842              
C              -25.999             -0.508              20.496              
H              -26.891             -2.303              22.971              
H              -27.576             -3.334              20.67               
H              -28.278             -1.961              21.203              
H              -26.132             -2.222              19.319              
H              -27.448             -1.262              19.203              
H              -25.144             -0.31               20.017              
H              -26.548             0.328               20.554              
N              -25.869             -4.624              22.65               
C              -25.055             -5.838              22.763              
C              -25.257             -6.65               21.496              
O              -26.323             -7.237              21.289              
C              -25.542             -6.623              23.971              
C              -24.563             -7.647              24.57               
C              -23.299             -7.247              24.977              
C              -24.944             -8.973              24.787              
C              -22.419             -8.137              25.574              
C              -24.072             -9.872              25.392              
C              -22.827             -9.446              25.795              
O              -21.95              -10.352             26.389              
H              -26.822             -4.542              23.076              
H              -24.099             -5.569              22.817              
H              -25.778             -5.973              24.704              
H              -26.376             -7.126              23.714              
H              -23.012             -6.295              24.838              
H              -25.848             -9.276              24.507              
H              -21.505             -7.842              25.843              
H              -24.353             -10.822             25.531              
H              -21.22              -10.559             25.744              
N              -24.22              -6.73               20.665              
C              -24.352             -7.268              19.31               
C              -23.159             -8.17               18.99               
O              -22.119             -8.119              19.653              
C              -24.438             -6.139              18.267              
C              -25.781             -5.408              18.406              
C              -23.263             -5.197              18.415              
H              -23.321             -6.383              21.055              
H              -25.181             -7.829              19.276              
H              -24.431             -6.553              17.367              
H              -25.616             -4.477              18.724              
H              -26.235             -5.386              17.518              
H              -26.351             -5.894              19.065              
H              -23.272             -4.792              19.331              
H              -22.41              -5.704              18.284              
H              -23.328             -4.471              17.729              
N              -23.296             -9.021              17.972              
C              -22.187             -9.925              17.646              
C              -20.975             -9.162              17.112              
O              -21.1               -8.282              16.257              
C              -22.786             -10.834             16.565              
C              -24.305             -10.737             16.74               
C              -24.516             -9.313              17.185              
H              -21.932             -10.481             18.449              
H              -22.527             -10.523             15.648              
H              -22.487             -11.783             16.685              
H              -24.754             -10.919             15.874              
H              -24.604             -11.383             17.432              
H              -24.585             -8.692              16.407              
H              -25.33              -9.224              17.758              
N              -19.784             -9.526              17.594              
C              -18.555             -8.902              17.092              
C              -17.531             -9.957              16.673              
O              -16.475             -9.622              16.124              
C              -17.929             -7.92               18.109              
C              -18.849             -6.734              18.399              
C              -17.604             -8.624              19.432              
H              -19.804             -10.254             18.32               
H              -18.792             -8.359              16.278              
H              -17.097             -7.548              17.698              
H              -19.793             -6.99               18.194              
H              -18.771             -6.483              19.363              
H              -18.58              -5.96               17.828              
H              -17.445             -9.593              19.253              
H              -16.785             -8.212              19.826              
H              -18.375             -8.514              20.056              
N              -17.804             -11.234             16.932              
C              -16.828             -12.26              16.584              
C              -17.57              -13.574             16.399              
O              -18.505             -13.881             17.156              
C              -15.758             -12.358             17.692              
C              -15.005             -13.654             17.743              
H              -18.708             -11.418             17.372              
H              -16.402             -12.013             15.718              
H              -15.092             -11.608             17.563              
H              -16.209             -12.217             18.586              
N              -13.896             -13.902             16.96               
C              -15.168             -14.754             18.526              
C              -13.425             -15.108             17.236              
N              -14.182             -15.647             18.18               
H              -15.87              -14.887             19.218              
H              -12.637             -15.538             16.807              
H              -14.055             -16.557             18.577              
N              -17.182             -14.325             15.362              
C              -17.723             -15.667             15.159              
C              -16.78              -16.679             15.814              
O              -15.613             -16.783             15.424              
C              -17.888             -15.96              13.663              
C              -18.677             -17.194             13.404              
C              -18.061             -18.438             13.431              
C              -20.047             -17.119             13.203              
C              -18.808             -19.58              13.219              
C              -20.806             -18.273             13.018              
C              -20.185             -19.484             13.008              
H              -16.488             -13.883             14.739              
H              -18.585             -15.715             15.657              
H              -18.361             -15.195             13.261              
H              -16.987             -16.078             13.282              
H              -17.088             -18.508             13.603              
H              -20.499             -16.227             13.191              
H              -18.36              -20.482             13.215              
H              -21.807             -18.19              12.893              
H              -20.708             -20.331             12.849              
N              -17.269             -17.419             16.821              
C              -16.353             -18.279             17.574              
C              -16.32              -19.731             17.099              
O              -15.238             -20.343             17.056              
C              -16.695             -18.26              19.07               
C              -15.49              -18.511             19.962              
O              -14.436             -17.836             19.784              
O              -15.62              -19.296             20.922              
H              -18.265             -17.332             16.998              
H              -15.416             -17.903             17.44               
H              -17.071             -17.365             19.286              
H              -17.371             -18.969             19.239              
N              -17.467             -20.298             16.756              
C              -17.539             -21.731             16.484              
C              -18.916             -22.072             15.945              
O              -19.859             -21.289             16.04               
C              -17.274             -22.552             17.755              
H              -18.278             -19.662             16.699              
H              -16.854             -21.963             15.791              
H              -16.458             -23.109             17.62               
H              -17.136             -21.931             18.523              
H              -18.059             -23.141             17.934              
N              -19.023             -23.271             15.361              
C              -20.32              -23.873             15.096              
C              -20.286             -25.275             15.679              
O              -19.237             -25.922             15.679              
C              -20.6               -23.956             13.6                
O              -19.669             -24.824             13.008              
H              -18.119             -23.717             15.122              
H              -21.012             -23.353             15.583              
H              -21.514             -24.31              13.465              
H              -20.505             -23.053             13.207              
H              -19.152             -24.337             12.302              
N              -21.419             -25.735             16.192              
C              -21.472             -27.031             16.862              
C              -22.737             -27.769             16.497              
O              -23.727             -27.201             16.029              
C              -21.36              -26.92              18.39               
C              -20.011             -26.335             18.81               
C              -22.511             -26.112             18.951              
O              -22.79              -28.974             16.724              
H              -22.239             -25.114             16.08               
H              -20.685             -27.575             16.547              
H              -21.403             -27.843             18.769              
H              -19.341             -27.072             18.889              
H              -19.707             -25.678             18.122              
H              -20.11              -25.876             19.692              
H              -23.156             -25.894             18.217              
H              -22.979             -26.644             19.659              
H              -22.16              -25.263             19.349              
H              -26.8239            -26.6739            9.94365             
H              -26.4301            -12.0348            21.9876             
