327
0.xyz
N              6.463               3.766               10.153              
C              5.357               4.495               9.525               
C              5.091               4.001               8.103               
O              6.051               3.662               7.412               
C              5.88                5.945               9.493               
C              7.373               5.797               9.406               
C              7.695               4.561               10.233              
H              4.521               4.429               10.087              
H              5.522               6.429               8.695               
H              5.617               6.431               10.325              
H              7.66                5.669               8.456               
H              7.829               6.603               9.785               
H              8.468               4.062               9.844               
H              7.9                 4.808               11.18               
H              6.817               3.074               9.52                
H              6.133               3.31                10.985              
N              3.838               4.013               7.653               
C              3.489               3.636               6.289               
C              2.916               4.842               5.549               
O              2.284               5.71                6.153               
C              2.474               2.491               6.292               
C              2.879               1.156               6.932               
C              1.715               0.17                6.912               
C              4.063               0.513               6.242               
H              3.13                4.315               8.36                
H              4.32                3.339               5.814               
H              1.652               2.812               6.776               
H              2.228               2.297               5.337               
H              3.157               1.322               7.878               
H              1.437               0.003               5.966               
H              2.001               -0.691              7.333               
H              0.946               0.553               7.424               
H              4.855               1.125               6.288               
H              4.289               -0.352              6.694               
H              3.839               0.335               5.282               
N              3.101               4.881               4.232               
C              2.59                5.988               3.42                
C              1.131               5.757               3.043               
O              0.787               4.712               2.492               
C              3.451               6.179               2.164               
C              4.862               6.613               2.569               
C              2.827               7.206               1.221               
C              5.818               6.781               1.457               
H              3.626               4.079               3.839               
H              2.61                6.8                 4.01                
H              3.52                5.305               1.701               
H              4.779               7.479               3.082               
H              5.216               5.922               3.216               
H              3.39                7.288               0.402               
H              1.909               6.908               0.968               
H              2.776               8.09                1.681               
H              5.488               7.481               0.815               
H              6.716               7.066               1.808               
H              5.929               5.916               0.958               
N              0.297               6.765               3.262               
C              -1.117              6.738               2.928               
C              -1.344              7.562               1.665               
O              -0.811              8.682               1.566               
C              -1.917              7.312               4.112               
C              -3.379              7.381               3.818               
C              -1.619              6.501               5.381               
H              0.757               7.605               3.708               
H              -1.378              5.793               2.73                
H              -1.592              8.25                4.263               
H              -3.909              7.056               4.607               
H              -3.65               8.328               3.617               
H              -3.602              6.808               3.023               
H              -1.672              7.107               6.172               
H              -2.294              5.771               5.464               
H              -0.703              6.113               5.309               
N              -2.158              7.102               0.689               
C              -2.898              5.834               0.692               
C              -1.996              4.605               0.562               
O              -1.018              4.628               -0.184              
C              -3.822              5.951               -0.53               
C              -3.904              7.402               -0.837              
C              -2.562              7.964               -0.443              
H              -3.477              5.763               1.525               
H              -3.44               5.435               -1.308              
H              -4.731              5.571               -0.319              
H              -4.078              7.551               -1.815              
H              -4.64               7.837               -0.309              
H              -1.902              7.893               -1.188              
H              -2.635              8.916               -0.148              
N              -2.348              3.549               1.297               
C              -1.574              2.326               1.397               
C              -2.368              1.174               0.805               
O              -3.568              1.056               1.029               
C              -1.226              2.031               2.895               
C              -0.31               0.85                3.095               
C              1.045               0.971               2.884               
C              -0.81               -0.392              3.482               
C              1.893               -0.133              3.007               
C              0.02                -1.484              3.626               
C              1.365               -1.359              3.396               
O              2.153               -2.487              3.548               
H              -3.262              3.686               1.812               
H              -0.734              2.435               0.861               
H              -0.788              2.846               3.262               
H              -2.084              1.857               3.369               
H              1.441               1.858               2.638               
H              -1.79               -0.488              3.659               
H              2.868               -0.04               2.818               
H              -0.365              -2.373              3.9                 
H              1.602               -3.295              3.354               
N              -1.688              0.315               0.063               
C              -2.265              -0.931              -0.445              
C              -1.673              -2.149              0.264               
O              -0.459              -2.355              0.234               
C              -2.017              -1.089              -1.946              
C              -2.581              -2.41               -2.48               
H              -0.699              0.599               -0.133              
H              -3.248              -0.913              -0.227              
H              -2.465              -0.345              -2.423              
H              -1.04               -1.079              -2.11               
O              -3.773              -2.62               -2.445              
N              -1.706              -3.317              -2.942              
H              -0.728              -3.091              -2.91               
H              -2.021              -4.18               -3.301              
N              -2.521              -2.932              0.91                
C              -2.142              -4.205              1.53                
C              -2.625              -5.335              0.623               
O              -3.849              -5.586              0.542               
C              -2.794              -4.332              2.911               
C              -2.522              -5.613              3.708               
C              -1.008              -5.758              4.004               
C              -3.357              -5.72               5                   
H              -3.506              -2.563              0.945               
H              -1.151              -4.248              1.589               
H              -2.477              -3.563              3.47                
H              -3.785              -4.264              2.788               
H              -2.822              -6.401              3.178               
H              -0.708              -4.971              4.535               
H              -0.861              -6.596              4.521               
H              -0.515              -5.797              3.14                
H              -4.326              -5.71               4.762               
H              -3.129              -6.573              5.464               
H              -3.143              -4.944              5.59                
N              -1.739              -6.023              -0.1                
C              -2.19               -7.208              -0.85               
C              -2.76               -8.261              0.092               
O              -2.248              -8.469              1.193               
C              -0.915              -7.727              -1.546              
C              0.02                -6.5                -1.555              
C              -0.299              -5.773              -0.272              
H              -2.864              -6.948              -1.549              
H              -0.5                -8.465              -1.028              
H              -1.106              -8.015              -2.476              
H              0.967               -6.806              -1.577              
H              -0.179              -5.939              -2.353              
H              0.218               -6.147              0.496               
H              -0.118              -4.793              -0.354              
N              -3.809              -8.957              -0.368              
C              -4.458              -10.056             0.36                
C              -4.323              -11.288             -0.544              
O              -5.206              -11.558             -1.38               
C              -5.915              -9.723              0.678               
C              -6.178              -8.382              1.418               
C              -7.662              -8.133              1.526               
C              -5.532              -8.402              2.788               
H              -4.137              -8.642              -1.319              
H              -3.961              -10.223             1.193               
H              -6.42               -9.679              -0.18               
H              -6.282              -10.445             1.256               
H              -5.743              -7.651              0.899               
H              -8.096              -8.878              2.037               
H              -7.829              -7.267              2.004               
H              -8.067              -8.085              0.61                
H              -4.543              -8.533              2.694               
H              -5.707              -7.534              3.257               
H              -5.913              -9.153              3.331               
N              -3.222              -12.031             -0.447              
C              -2.929              -13.041             -1.481              
C              -3.964              -14.155             -1.477              
O              -4.231              -14.796             -0.453              
C              -1.526              -13.537             -1.104              
C              -0.928              -12.419             -0.298              
C              -2.082              -11.838             0.477               
H              -2.869              -12.607             -2.389              
H              -1.582              -14.377             -0.56               
H              -0.981              -13.715             -1.926              
H              -0.223              -12.772             0.32                
H              -0.52               -11.732             -0.903              
H              -2.237              -12.331             1.328               
H              -1.946              -10.868             0.665               
N              -4.553              -14.398             -2.652              
C              -5.589              -15.402             -2.76               
C              -6.916              -14.967             -2.202              
O              -7.796              -15.811             -2.002              
H              -4.211              -13.824             -3.438              
H              -5.704              -15.66              -3.742              
H              -5.283              -16.252             -2.281              
N              -7.091              -13.676             -1.946              
C              -8.34               -13.157             -1.439              
C              -8.543              -13.381             0.038               
O              -7.648              -13.776             0.78                
H              -6.256              -13.081             -2.142              
H              -8.393              -12.155             -1.637              
H              -9.115              -13.584             -1.953              
N              -9.766              -13.097             0.479               
C              -10.137             -13.307             1.872               
C              -10.898             -14.615             2.039               
O              -11.341             -15.239             1.075               
C              -10.908             -12.106             2.473               
C              -10.108             -10.831             2.295               
C              -12.308             -12.004             1.908               
H              -10.413             -12.723             -0.239              
H              -9.292              -13.368             2.417               
H              -10.995             -12.267             3.449               
H              -9.133              -11.05              2.233               
H              -10.396             -10.366             1.457               
H              -10.261             -10.225             3.077               
H              -12.934             -12.55              2.466               
H              -12.603             -11.047             1.916               
H              -12.315             -12.347             0.967               
N              -11.004             -15.057             3.283               
C              -11.571             -16.346             3.642               
C              -12.051             -16.232             5.082               
O              -11.465             -15.458             5.86                
C              -10.532             -17.459             3.453               
C              -9.374              -17.307             4.414               
C              -11.181             -18.827             3.546               
H              -10.635             -14.381             4.006               
H              -12.361             -16.514             3.066               
H              -10.16              -17.373             2.528               
H              -9.089              -16.348             4.452               
H              -9.652              -17.605             5.329               
H              -8.603              -17.867             4.106               
H              -10.973             -19.234             4.436               
H              -12.172             -18.732             3.445               
H              -10.825             -19.414             2.818               
N              -13.087             -16.969             5.487               
C              -13.469             -16.932             6.901               
C              -12.287             -17.32              7.78                
O              -11.475             -18.185             7.424               
C              -14.614             -17.958             6.974               
C              -15.284             -17.799             5.634               
C              -14.087             -17.719             4.684               
H              -13.82              -16.025             7.152               
H              -14.256             -18.878             7.084               
H              -15.239             -17.736             7.712               
H              -15.842             -18.587             5.424               
H              -15.81              -16.964             5.602               
H              -13.748             -18.625             4.46                
H              -14.32              -17.219             3.858               
N              -12.191             -16.653             8.93                
C              -11.152             -16.798             9.969               
C              -9.941              -15.901             9.706               
O              -9.012              -15.873             10.529              
C              -10.686             -18.235             10.25               
C              -11.84              -19.16              10.571              
C              -11.432             -20.477             11.231              
N              -10.923             -20.22              12.566              
C              -11.689             -19.917             13.611              
N              -13.009             -19.855             13.478              
N              -11.136             -19.679             14.791              
H              -12.991             -15.944             9.056               
H              -11.555             -16.544             10.86               
H              -10.228             -18.572             9.442               
H              -10.076             -18.213             11.027              
H              -12.483             -18.694             11.193              
H              -12.337             -19.387             9.722               
H              -12.233             -21.052             11.282              
H              -10.726             -20.888             10.676              
H              -9.928              -20.273             12.714              
H              -13.447             -20.052             12.606              
H              -13.577             -19.606             14.271              
H              -10.14              -19.748             14.896              
H              -11.704             -19.433             15.574              
N              -9.925              -15.156             8.606               
C              -8.874              -14.181             8.36                
C              -9.178              -12.889             9.126               
O              -10.272             -12.324             9.014               
C              -8.79               -13.928             6.865               
C              -7.567              -13.183             6.464               
S              -7.537              -13.087             4.674               
C              -6.072              -12.103             4.388               
H              -10.713             -15.328             7.951               
H              -8.011              -14.548             8.71                
H              -8.809              -14.816             6.385               
H              -9.605              -13.404             6.579               
H              -7.581              -12.258             6.868               
H              -6.746              -13.66              6.807               
H              -5.517              -12.526             3.669               
H              -6.336              -11.18              4.102               
H              -5.534              -12.046             5.231               
N              -8.198              -12.45              9.913               
C              -8.284              -11.249             10.753              
C              -7.294              -10.198             10.257              
O              -6.095              -10.454             10.205              
C              -7.93               -11.635             12.201              
C              -7.989              -10.48              13.213              
C              -9.407              -9.93               13.386              
C              -7.371              -10.881             14.541              
H              -7.331              -13.051             9.884               
H              -9.209              -10.875             10.679              
H              -8.577              -12.323             12.498              
H              -7.006              -11.986             12.204              
H              -7.385              -9.741              12.896              
H              -10.006             -10.66              13.712              
H              -9.393              -9.185              14.051              
H              -9.739              -9.59               12.507              
H              -6.412              -11.134             14.403              
H              -7.422              -10.113             15.181              
H              -7.868              -11.662             14.921              
N              -7.815              -9.04               9.835               
C              -7.008              -7.892              9.431               
C              -6.918              -6.945              10.627              
O              -7.941              -6.615              11.243              
C              -7.61               -7.165              8.213               
C              -7.514              -8.026              6.943               
C              -6.915              -5.794              8.016               
C              -8.621              -9.068              6.799               
H              -8.865              -9.03               9.82                
H              -6.09               -8.235              9.272               
H              -8.576              -7.001              8.398               
H              -7.539              -7.42               6.148               
H              -6.633              -8.5                6.953               
H              -7.359              -5.315              7.267               
H              -6.999              -5.269              8.856               
H              -5.957              -5.949              7.803               
H              -9.502              -8.603              6.774               
H              -8.48               -9.576              5.953               
H              -8.586              -9.688              7.578               
N              -5.701              -6.488              10.945              
H              -4.927              -6.888              10.379              
H              -5.54973            -5.79967            11.6874             
