44

C        -0.0458618637    1.4228672124    1.1861104039
C         1.2442851379    0.6769096442    1.1881747135
C         1.0682806502   -0.4067880230    0.1660238018
C        -0.3648737085   -0.3236104697   -0.3755802583
C        -0.9303350694    0.9118409132    0.3308605278
C        -3.0015065841    2.1424167185    1.0239020185
C        -2.2804173158    1.4585883108    0.0411760502
C        -2.8659920507    1.3109406491   -1.2159709267
C        -4.1172903469    1.8458087515   -1.4894663459
C        -4.8147390737    2.5329553394   -0.5085008605
C        -4.2503018839    2.6763533340    0.7523911531
C        -1.5860908952   -1.9524456166    1.1495363701
C        -1.1543913653   -1.6025281709   -0.1292041652
C        -1.4238740663   -2.4747107975   -1.1790405015
C        -2.1067060143   -3.6653911806   -0.9637326469
C        -2.5307994778   -4.0023004362    0.3119142206
C        -2.2668461814   -3.1400318047    1.3685477877
C         5.6276028430    1.0657201557   -1.1632351096
C         6.2697961646    0.1663990254   -0.3262754380
C         5.5205266458   -0.5591162642    0.5902151663
C         4.1469199040   -0.3883377518    0.6679891448
C         3.4878497339    0.5138196221   -0.1694816903
C         4.2522918973    1.2365570669   -1.0833268055
C         2.0094234269    0.7343260385   -0.1203541698
H        -0.2002631673    2.3157721234    1.7763440921
H         1.7964574763    0.5405896322    2.1090050655
H         1.5009963908   -1.3879834286    0.3008298173
H        -0.3359456974   -0.1564191253   -1.4540426112
H        -2.5877692188    2.2427176300    2.0176279553
H        -2.3433401395    0.7793931555   -1.9978341274
H        -4.5470191513    1.7215176522   -2.4747335577
H        -5.7918791696    2.9463225682   -0.7200310335
H        -4.7895850676    3.1987333574    1.5317328676
H        -1.3920834267   -1.2871976397    1.9799785167
H        -1.0967332433   -2.2238071143   -2.1805277291
H        -2.3074335588   -4.3274991618   -1.7959551358
H        -3.0648706724   -4.9275682082    0.4833163136
H        -2.5960103494   -3.3927166128    2.3681316699
H         6.1969216773    1.6395091110   -1.8829582618
H         7.3414826158    0.0313029097   -0.3856913448
H         6.0082470428   -1.2645306758    1.2504305562
H         3.5898564903   -0.9680725503    1.3917818667
H         3.7655534384    1.9438625871   -1.7425917580
H         1.6611312304    1.4815144681   -0.8224941321
