8

C -1.2531471736	1.2497982026	0.332447588
C -1.2768009489	0.0	-0.5692222136
H -1.2755202049	2.1527788018	-0.2864958625
H -2.1530464917	1.2739115238	0.9556394594
H -0.37099751849999996	1.2512576273401317	0.9563588740592106
H -0.3780002809243421	0.0	-1.1769275565921054
H -1.260149936024342	-0.8797921557776317	0.0655058704210526
H -2.1535595624605266	0.0	-1.193746039180263
