6

N -0.6471510378	-0.3142462743	0.7399253226
O -0.1654722848	-2.505916711	0.313458797
C 0.1096790147	-1.343104058	0.2947642105
H 0.9921409505335571	-0.9053106885986577	-0.08666575081543626
H -0.23631774466530614	0.598609265842857	0.5966599877755102
H -1.4952930815714285	-0.4490854220142857	1.2636084201959183
