12

C 1.3733836139	0.1224454753	0.3062878572
C 1.9195842071	-0.7028792017	1.2899259906
C 3.1583232327	-1.2975407056	1.1194734915
C 3.8834549073	-1.0757025769	-0.0447247226
C 3.3532947076	-0.2589944182	-1.0290389743
C 2.1068713431	0.3344785953	-0.8582222514
H 1.3639680352	-0.8846664785	2.2012155829
H 3.5603471858	-1.9329326267	1.897532873
H 4.8528808622	-1.5363389983	-0.1801954454
H 3.9071184687	-0.0784833138	-1.9409297259
H 1.7142042539	0.9592728408	-1.6465147844
H 0.41483272650671144	0.5503750653510067	0.4854860105798658
