65

N 1.917	-1.267	4.075
C 0.886	-1.396	5.114
C 0.616	-2.847	5.522
O 1.177	-3.257	6.527
C -0.369	-0.647	4.7
O -0.016	0.674	4.308
C -1.349	-0.653	5.855
H 2.791	-1.643	4.408
H 1.61	-1.741	3.236
H 2.019	-0.279	3.873
H 1.25	-0.886	6.006
H -0.855	-1.148	3.87
H -0.782	1.18	4.017
H -1.477	-1.633	6.319
H -1.03	0.059	6.623
H -2.298	-0.448	5.39
N -0.258	-3.602	4.84
C -0.421	-5.021	5.157
C 0.726	-5.706	4.401
O 1.105	-5.217	3.326
C -1.822	-5.557	4.763
C -2.129	-6.885	5.474
C -2.978	-4.571	5.037
H -0.525	-3.336	3.901
H -0.293	-5.17	6.232
H -1.817	-5.772	3.702
H -1.379	-7.634	5.22
H -2.128	-6.744	6.556
H -3.102	-7.272	5.167
H -3.012	-4.312	6.096
H -2.864	-3.666	4.442
H -3.927	-5.031	4.751
N 1.27	-6.786	4.948
C 2.414	-7.502	4.415
C 2.191	-9.0	4.642
O 1.35	-9.404	5.454
C 3.685	-7.007	5.122
O 3.865	-5.605	4.973
H 0.912	-7.16	5.814
H 2.508	-7.324	3.345
H 3.616	-7.24	6.185
H 4.555	-7.527	4.722
H 4.733	-5.412	5.343
N 2.922	-9.815	3.89
C 2.961	-11.253	4.026
C 3.753	-11.581	5.3
O 4.575	-10.796	5.778
C 3.578	-11.85	2.738
C 2.876	-11.444	1.419
C 3.616	-13.379	2.817
C 1.364	-11.241	1.464
H 3.624	-9.407	3.279
H 1.941	-11.624	4.142
H 4.599	-11.491	2.665
H 3.363	-10.551	1.018
H 3.012	-12.228	0.689
H 4.301	-13.683	3.601
H 2.615	-13.757	3.001
H 4.014	-13.811	1.899
H 0.864	-12.17	1.733
H 1.097	-10.473	2.184
H 1.032	-10.93	0.473
N 3.491	-12.767	5.854
H 2.817	-13.365	5.401
H 3.8407142857142857	-13.075081632653061	6.753265306122449
