54

H 5.972	-15.737	-4.698
H 7.827	-15.767	-6.319
H 8.298	-14.137	-5.835
H 7.987	-17.674	-4.644
H 9.64	-13.761	-3.881
H 9.441	-18.629	-2.874
H 11.102	-14.719	-2.121
H 11.024	-17.158	-1.632
N 6.364	-14.334	-2.641
C 6.205	-13.525	-1.447
C 6.934	-14.152	-0.263
O 7.278	-15.336	-0.265
C 4.71	-13.342	-1.149
C 4.049	-12.254	-2.002
C 3.864	-14.615	-1.261
H 6.365	-15.345	-2.517
H 6.657	-12.545	-1.612
H 4.681	-13.007	-0.122
H 4.589	-11.323	-1.859
H 4.064	-12.529	-3.056
H 3.013	-12.107	-1.697
H 3.898	-15.021	-2.271
H 4.235	-15.358	-0.556
H 2.828	-14.377	-1.033
N 7.211	-13.365	0.776
H 6.915	-12.398	0.779
C 2.217	-15.387	-8.163
O 3.19	-15.982	-8.619
N 2.319	-14.191	-7.567
C 3.61	-13.551	-7.294
C 4.308	-14.24	-6.121
O 3.636	-14.735	-5.207
C 3.405	-12.066	-6.97
C 4.599	-11.215	-7.399
O 5.707	-11.401	-6.854
O 4.367	-10.378	-8.299
H 1.486	-13.726	-7.228
H 4.237	-13.64	-8.184
H 2.533	-11.701	-7.512
H 3.217	-11.936	-5.903
N 5.64	-14.25	-6.115
C 6.422	-14.792	-5.018
C 6.412	-13.798	-3.857
O 6.512	-12.577	-4.03
C 7.854	-15.069	-5.482
C 8.738	-15.657	-4.4
C 8.675	-17.032	-4.105
C 9.607	-14.822	-3.673
C 9.496	-17.574	-3.101
C 10.434	-15.364	-2.674
C 10.383	-16.741	-2.394
H 6.124	-13.674	-6.791
H 1.2572684563758392	-15.840691275167785	-8.265604026845638
H 7.741816326530612	-13.692510204081632	1.5746530612244898
