36

C 3.995	-13.211	7.15
C 4.69	-14.585	7.064
O 4.983	-15.171	8.096
C 2.797	-13.228	8.131
C 1.904	-14.486	7.933
C 0.376	-14.343	7.902
O -0.321	-15.317	8.156
N -0.181	-13.21	7.491
H 4.738	-12.494	7.511
H 3.197	-13.238	9.147
H 2.226	-12.304	8.02
H 2.161	-14.969	6.992
H 2.16	-15.188	8.729
H 0.375	-12.382	7.331
H -1.184	-13.211	7.379
N 4.854	-15.155	5.864
C 5.38	-16.501	5.669
C 5.953	-16.582	4.247
O 5.487	-15.886	3.344
C 4.232	-17.502	5.933
C 4.561	-18.993	5.798
S 6.203	-19.574	6.29
C 6.119	-21.174	5.435
H 4.622	-14.649	5.024
H 6.178	-16.674	6.394
H 3.865	-17.341	6.948
H 3.406	-17.284	5.255
H 3.836	-19.547	6.396
H 4.41	-19.277	4.758
H 5.254	-21.731	5.796
H 6.011	-21.008	4.362
H 7.025	-21.749	5.618
N 6.976	-17.412	4.041
H 7.264	-18.01	4.803
H 3.628142857142857	-12.887816326530611	6.20665306122449
H 7.349306122448979	-17.625714285714285	3.124387755102041
