52

C 4.621	-6.043	1.291
C 3.512	-6.737	0.484
O 3.749	-7.555	-0.408
C 4.961	-4.627	0.776
C 5.768	-3.841	1.824
C 5.726	-4.624	-0.559
H 4.253	-5.949	2.313
H 4.024	-4.087	0.631
H 5.197	-3.768	2.75
H 6.711	-4.351	2.032
H 5.981	-2.835	1.46
H 6.701	-5.101	-0.452
H 5.162	-5.18	-1.306
H 5.868	-3.6	-0.909
N 2.271	-6.333	0.766
C 1.072	-6.81	0.083
C 0.186	-5.638	-0.289
O -0.317	-5.589	-1.404
C 0.308	-7.785	0.998
C -1.07	-8.26	0.478
C -1.006	-8.885	-0.922
C -1.69	-9.277	1.449
H 2.143	-5.688	1.533
H 1.35	-7.332	-0.835
H 0.956	-8.638	1.147
H 0.151	-7.309	1.966
H -1.738	-7.405	0.438
H -0.65	-8.164	-1.655
H -0.336	-9.742	-0.924
H -2.003	-9.203	-1.231
H -1.073	-10.169	1.487
H -1.768	-8.858	2.455
H -2.681	-9.573	1.109
N -0.014	-4.681	0.61
C -1.123	-3.751	0.473
C -2.361	-4.349	1.178
C -3.472	-4.763	0.197
C -4.299	-5.93	0.761
C -4.397	-3.575	-0.027
H 0.458	-4.725	1.506
H -1.362	-3.615	-0.583
H -2.064	-5.243	1.717
H -2.768	-3.638	1.899
H -3.053	-5.066	-0.763
H -3.869	-6.89	0.474
H -4.372	-5.889	1.848
H -5.3	-5.866	0.344
H -5.126	-3.513	0.776
H -3.829	-2.643	-0.089
H -4.939	-3.729	-0.958
H 5.501748299319728	-6.628952380952381	1.3201156462585033
H -0.8213892617449664	-2.784409395973154	0.8758657718120806
