47

C -2.607	0.512	0.927
O -3.376	0.179	0.024
C -0.222	0.84	0.06
C 0.063	2.201	0.71
C 1.27	2.916	0.082
O 2.284	2.222	-0.185
O 1.146	4.151	-0.103
H -1.834	-1.476	-0.388
H -0.774	-0.01	1.938
H 0.709	0.281	-0.024
H -0.643	0.984	-0.936
H -0.829	2.824	0.614
H 0.246	2.054	1.777
N -3.002	1.28	1.942
C -4.396	1.672	2.142
C -4.429	3.176	2.347
O -3.564	3.727	3.028
C -5.086	0.967	3.337
C -4.803	-0.54	3.554
C -5.348	-1.099	4.881
C -5.425	-1.349	2.423
H -2.313	1.7	2.545
H -4.961	1.438	1.245
H -4.881	1.546	4.228
H -6.16	1.064	3.2
H -3.726	-0.721	3.545
H -4.838	-0.69	5.737
H -6.407	-0.874	4.997
H -5.194	-2.175	4.945
H -6.501	-1.177	2.366
H -4.968	-1.099	1.471
H -5.247	-2.405	2.605
N -5.46	3.827	1.821
C -5.768	5.241	1.994
C -6.856	5.643	0.993
O -6.537	5.217	-0.317
H -6.176	3.279	1.355
H -4.867	5.833	1.814
H -7.793	5.178	1.299
H -6.974	6.727	1.003
H -7.305	5.375	-0.878
C -0.703	-2.405	1.034
O 0.042	-2.323	2.022
N -1.226	-1.348	0.424
C -1.168	0.007	0.927
H -0.9961543624161073	-3.3444899328859057	0.6424295302013423
H -6.136395973154362	5.444228187919463	3.0079865771812084
