46

C -5.904	3.571	6.413
O -6.358	2.723	7.177
N -4.576	3.739	6.273
C -3.504	3.233	7.181
C -2.429	4.289	7.473
O -1.326	3.955	7.898
C -2.71	2.152	6.49
O -3.638	1.185	6.134
H -4.242	4.356	5.538
H -3.934	2.832	8.104
H -2.193	2.566	5.618
H -1.966	1.746	7.181
H -3.475	0.884	5.232
N -2.75	5.469	6.974
C -1.964	6.582	6.475
C -1.941	7.691	7.558
O -1.013	8.502	7.626
C -2.742	7.04	5.207
O -3.778	6.128	4.817
C -1.85	7.152	3.976
H -3.687	5.524	6.611
H -0.956	6.257	6.205
H -3.191	8.014	5.411
H -3.635	5.865	3.903
H -1.073	7.897	4.162
H -1.38	6.183	3.799
H -2.449	7.454	3.113
N -3.046	7.687	8.328
C -3.142	7.6	9.789
C -1.925	6.887	10.366
O -1.101	7.593	10.977
C -4.459	6.82	10.157
C -5.093	5.807	9.149
C -6.548	5.406	9.481
O -7.386	6.26	9.727
N -6.858	4.107	9.535
O -1.908	5.643	10.258
H -3.731	7.068	7.939
H -3.15	8.586	10.273
H -4.247	6.25	11.062
H -5.229	7.54	10.428
H -5.097	6.214	8.133
H -4.491	4.9	9.14
H -6.162	3.58	10.014
H -7.171	3.653	8.669
H -6.585234899328859	4.194302013422819	5.838557046979866
