63

H -9.762	-5.984	-6.733
H -9.687	-4.882	-9.565
H -10.451	-6.389	-9.021
H -11.829	-4.92	-7.388
H -11.246	-3.526	-8.3
H -12.244	-4.525	-10.286
H -12.8	-5.788	-9.381
H -13.379	-4.275	-9.116
N -6.86	-1.818	-6.044
C -6.885	-0.382	-5.78
C -6.021	0.347	-6.814
H -6.387	-2.131	-6.875
H -6.468	-0.189	-4.797
H -4.997	-0.027	-6.777
H -6.432	0.204	-7.814
H -6.009	1.413	-6.584
C -9.119	-10.614	-3.436
C -9.36	-9.118	-3.209
O -10.389	-8.721	-2.675
C -9.725	-11.471	-2.312
C -9.462	-12.943	-2.492
N -9.957	-13.72	-3.51
C -8.616	-13.728	-1.755
C -9.422	-14.942	-3.384
N -8.598	-15.005	-2.326
H -9.601	-10.881	-4.377
H -9.321	-11.149	-1.352
H -10.804	-11.316	-2.29
H -10.547	-13.397	-4.262
H -8.039	-13.412	-0.899
H -9.62	-15.757	-4.06
N -8.383	-8.294	-3.58
C -8.368	-6.859	-3.355
C -7.892	-6.19	-4.628
O -7.158	-6.786	-5.419
C -7.422	-6.518	-2.187
C -8.149	-6.761	-0.868
C -6.081	-7.282	-2.242
H -7.575	-8.669	-4.056
H -9.379	-6.503	-3.128
H -7.188	-5.453	-2.223
H -9.051	-6.146	-0.843
H -8.445	-7.805	-0.777
H -7.505	-6.469	-0.043
H -6.244	-8.355	-2.216
H -5.545	-7.026	-3.156
H -5.447	-7.031	-1.402
N -8.258	-4.924	-4.81
C -7.799	-4.079	-5.909
C -7.64	-2.666	-5.369
O -8.272	-2.339	-4.37
C -8.839	-4.05	-7.034
C -9.253	-5.443	-7.533
C -10.202	-5.366	-8.732
C -11.482	-4.592	-8.373
N -12.555	-4.808	-9.368
H -8.87	-4.491	-4.125
H -6.845	-4.449	-6.286
H -9.719	-3.523	-6.661
H -8.426	-3.479	-7.867
H -8.362	-6.006	-7.817
H -8.076659863945578	-10.825816326530612	-3.5102448979591836
H -7.926275167785236	-0.025093959731543602	-5.795080536912752
