33

N -10.69	-11.673	4.218
C -9.705	-12.318	3.363
C -9.319	-11.342	2.254
O -10.195	-10.796	1.59
C -10.313	-13.626	2.833
C -9.281	-14.472	2.082
C -9.797	-15.892	1.822
O -9.536	-16.752	2.692
O -10.361	-16.157	0.736
H -11.627	-12.037	4.156
H -8.818	-12.565	3.943
H -10.679	-14.202	3.686
H -11.159	-13.41	2.178
H -9.022	-13.985	1.141
H -8.374	-14.536	2.687
N -8.023	-11.096	2.07
C -7.496	-10.194	1.049
C -6.846	-8.946	1.688
C -7.894	-8.053	2.37
C -5.748	-9.284	2.708
H -7.356	-11.54	2.693
H -8.323	-9.845	0.43
H -6.382	-8.36	0.894
H -8.68	-7.781	1.666
H -8.353	-8.575	3.208
H -7.423	-7.139	2.732
H -6.162	-9.836	3.548
H -4.966	-9.878	2.238
H -5.3	-8.364	3.084
C -10.457	-10.588	4.955
O -9.346	-10.068	5.048
H -11.284812080536913	-10.146174496644296	5.467322147651007
H -6.8109127516778525	-10.726127516778524	0.37253020134228176
