20

H 5.0448889341	-2.5127869196	-0.6515684472
H 6.9639779629	-1.0044686649	-0.2271899701
C 0.8106722205	0.1372936716	-0.4184182071
C -0.1377021914	1.2811524208	-0.8153329149
H 4.2406528579	2.2654349297	0.2583174873
H 2.7654738114	-1.6606145184	-0.6300990571
H 6.5330137566	1.3964132269	0.2267119468
N 0.7287562421	2.4615730165	-0.8455420075
N 1.8573471349	2.1881318614	-0.4985598424
N 2.0216380344	0.8837411473	-0.1487352826
C 4.880060937	-1.4622489836	-0.4521797324
C 5.952736693	-0.6223075987	-0.2166627409
C 5.7077942018	0.7228116933	0.0371035302
C 4.4181929967	1.2208934053	0.0588026108
C 3.3374397292	0.3703890249	-0.1878345279
C 3.5773993304	-0.9752623028	-0.4418633444
H 0.9581751468	-0.6024774058	-1.201607323
H -0.5981762958	1.1848803098	-1.790394745
H 0.3107819819671052	-0.2790659448914473	0.4563617986434212
H -0.8750194239243421	1.3337231220690788	0.001357731598684131
