51

O -0.962	2.3	-3.402
H -4.697	7.142	1.962
H -5.027	4.794	0.345
H -3.187	6.644	0.232
H -2.419	5.644	1.458
H -2.229	3.086	0.861
H -2.72	6.212	-1.981
H -1.295	1.631	-0.889
H -1.787	4.767	-3.741
H -1.438	2.444	-4.223
N -3.692	4.508	3.348
H -3.407	5.439	3.445
C -3.685	10.241	2.64
O -4.766	10.792	2.431
N -3.474	9.43	3.672
C -4.533	9.15	4.625
C -5.545	8.149	4.101
O -5.761	7.1	4.708
H -2.591	9.021	3.79
H -4.093	8.758	5.53
H -5.044	10.073	4.858
N -6.169	8.474	2.973
C -7.165	7.598	2.37
C -6.52	6.333	1.805
O -7.212	5.37	1.476
C -7.919	8.34	1.264
C -9.423	8.124	1.302
C -10.179	9.145	0.475
O -9.598	10.105	-0.03
N -11.484	8.942	0.332
H -5.957	9.321	2.536
H -7.863	7.317	3.141
H -7.727	9.398	1.362
H -7.553	8.004	0.305
H -9.643	7.139	0.919
H -9.758	8.193	2.327
H -11.881	8.152	0.765
H -11.998	9.591	-0.201
N -5.195	6.345	1.688
C -4.465	5.201	1.157
C -4.282	4.124	2.221
O -4.661	2.97	2.022
C -3.107	5.644	0.637
C -2.539	4.75	-0.439
C -2.131	3.454	-0.15
C -2.406	5.205	-1.743
C -1.607	2.636	-1.132
C -1.882	4.394	-2.732
C -1.485	3.111	-2.421
H -2.8578859060402686	10.39734899328859	1.9887785234899331
H -3.5247755102040816	3.8606122448979594	4.105714285714286
