47

C -7.101	-6.369	1.005
C -5.866	-6.672	0.173
O -5.455	-7.825	0.04
C -8.316	-6.232	0.101
C -8.926	-7.573	-0.257
O -8.856	-8.499	0.578
O -9.474	-7.698	-1.373
H -7.263	-7.175	1.679
H -9.066	-5.634	0.599
H -8.011	-5.746	-0.805
N -5.281	-5.624	-0.379
C -4.091	-5.752	-1.198
C -2.957	-6.398	-0.411
O -2.342	-7.363	-0.867
C -3.66	-4.39	-1.712
O -4.784	-3.562	-1.953
C -2.853	-4.459	-2.99
H -5.661	-4.74	-0.229
H -4.333	-6.371	-2.032
H -3.053	-3.927	-0.963
H -5.451	-4.058	-2.434
H -3.097	-5.367	-3.52
H -1.8	-4.453	-2.75
H -3.087	-3.606	-3.609
N -2.686	-5.86	0.774
C -1.631	-6.38	1.628
C -1.848	-7.855	1.92
O -0.937	-8.672	1.78
C -1.567	-5.583	2.929
C -0.431	-4.566	3.009
C -0.977	-3.146	2.969
C 0.399	-4.782	4.266
H -3.209	-5.094	1.082
H -0.71	-6.265	1.107
H -2.496	-5.054	3.032
H -1.465	-6.277	3.753
H 0.211	-4.697	2.156
H -0.324	-2.493	3.529
H -1.964	-3.128	3.406
H -1.031	-2.81	1.944
H 0.908	-3.866	4.524
H 1.126	-5.56	4.088
H -0.249	-5.075	5.079
N -3.063	-8.185	2.319
H -3.735	-7.489	2.405
H -3.3100204081632656	-9.13769387755102	2.5334081632653063
H -6.962700680272109	-5.4867959183673465	1.5756666666666668
