52

C -3.165	3.702	-6.044
C -4.487	3.613	-6.795
O -5.525	4.063	-6.309
C -2.486	5.035	-6.323
H -3.362	3.641	-4.989
H -2.828	5.421	-7.272
H -1.416	4.893	-6.357
H -2.733	5.736	-5.54
N -4.438	3.024	-7.981
C -5.624	2.865	-8.809
C -6.731	2.147	-8.042
O -7.89	2.56	-8.072
C -5.282	2.088	-10.082
O -4.973	2.967	-11.15
H -3.582	2.69	-8.306
H -5.966	3.849	-9.081
H -4.428	1.454	-9.896
H -6.127	1.478	-10.367
H -4.062	3.259	-11.071
N -6.363	1.069	-7.356
C -7.317	0.291	-6.582
C -7.62	0.957	-5.243
O -8.704	0.788	-4.687
C -6.792	-1.121	-6.365
H -5.428	0.791	-7.374
H -8.227	0.226	-7.156
H -7.165	-1.767	-7.147
H -7.128	-1.486	-5.406
H -5.713	-1.111	-6.39
N -6.656	1.715	-4.728
C -6.826	2.404	-3.455
C -7.832	3.547	-3.588
O -8.885	3.539	-2.95
C -5.477	2.957	-2.932
C -4.647	1.838	-2.296
C -5.694	4.083	-1.929
C -3.736	1.13	-3.276
H -5.812	1.814	-5.217
H -7.201	1.689	-2.737
H -4.932	3.361	-3.772
H -4.03	2.258	-1.514
H -5.313	1.101	-1.867
H -6.158	4.924	-2.423
H -4.743	4.387	-1.52
H -6.334	3.736	-1.131
H -3.335	1.846	-3.978
H -4.296	0.377	-3.811
H -2.925	0.66	-2.739
N -7.493	4.531	-4.414
H -6.637	4.481	-4.889
H -2.5186326530612244	2.898408163265306	-6.299489795918367
H -8.093204081632653	5.333122448979592	-4.560408163265306
