49

C -8.358	5.687	-4.625
C -9.618	5.304	-5.397
O -10.704	5.213	-4.824
C -7.6	6.783	-5.375
C -6.422	7.393	-4.613
C -5.281	7.721	-5.564
C -6.864	8.638	-3.858
H -8.647	6.063	-3.656
H -7.227	6.366	-6.3
H -8.295	7.575	-5.612
H -6.059	6.675	-3.891
H -4.516	8.267	-5.033
H -5.654	8.323	-6.379
H -4.864	6.804	-5.954
H -6.349	8.686	-2.91
H -7.93	8.595	-3.687
H -6.628	9.515	-4.441
N -9.468	5.087	-6.7
C -10.595	4.721	-7.552
C -11.343	3.514	-6.991
O -12.513	3.614	-6.621
C -10.11	4.422	-8.973
O -10.388	5.504	-9.845
H -8.578	5.179	-7.1
H -11.271	5.562	-7.584
H -9.043	4.254	-8.959
H -10.608	3.538	-9.345
H -11.111	5.265	-10.43
N -10.662	2.374	-6.936
C -11.282	1.167	-6.422
C -11.863	0.304	-7.525
O -12.876	-0.367	-7.33
H -9.734	2.353	-7.247
H -10.541	0.595	-5.885
H -12.073	1.442	-5.741
N -11.219	0.325	-8.687
C -11.675	-0.458	-9.827
C -11.564	-1.948	-9.549
O -12.532	-2.696	-9.685
C -10.878	-0.091	-11.07
H -10.418	0.88	-8.78
H -12.703	-0.216	-10.004
H -11.306	0.79	-11.525
H -10.907	-0.911	-11.772
H -9.853	0.11	-10.793
N -10.373	-2.365	-9.159
H -9.655	-1.709	-9.074
H -7.728374149659865	4.845557823129251	-4.471414965986394
H -10.18634693877551	-3.337122448979592	-8.946673469387756
