47

C -5.016	6.655	9.384
C -5.937	5.613	8.776
O -6.937	5.207	9.375
C -5.846	7.714	10.125
C -4.997	8.737	10.835
O -4.504	8.455	11.95
O -4.791	9.842	10.286
H -4.362	6.167	10.09
H -6.469	8.234	9.413
H -6.475	7.223	10.853
N -5.594	5.175	7.598
C -6.348	4.179	6.894
C -5.637	2.835	6.955
O -4.463	2.741	7.325
C -6.542	4.589	5.425
C -7.457	5.783	5.203
C -8.893	5.432	5.527
C -9.838	6.587	5.268
N -11.26	6.197	5.432
H -4.774	5.533	7.2
H -7.32	4.093	7.358
H -5.576	4.83	5.008
H -6.949	3.746	4.887
H -7.139	6.591	5.846
H -7.389	6.091	4.171
H -9.194	4.597	4.91
H -8.958	5.149	6.567
H -9.605	7.383	5.96
H -9.668	6.926	4.256
H -11.471	5.862	6.399
H -11.507	5.411	4.79
H -11.918	6.975	5.216
N -6.339	1.821	6.592
C -5.829	0.493	6.506
C -6.436	-0.109	5.27
O -7.472	0.384	4.813
C -6.183	-0.31	7.759
O -5.814	-1.67	7.611
H -7.276	1.949	6.335
H -4.756	0.549	6.386
H -5.624	0.106	8.584
H -7.243	-0.242	7.956
H -5.334	-1.977	8.399
N -5.866	-1.178	4.763
H -5.209	-1.697	5.275
H -4.401659863945578	7.105564625850341	8.631360544217687
H -6.156734693877551	-1.5395102040816326	3.885938775510204
