44

C -6.285	-1.699	3.499
C -7.55	-2.452	3.655
O -8.496	-2.225	2.93
C -5.193	-2.559	2.86
C -3.95	-1.782	2.524
C -3.813	-1.162	1.292
C -2.917	-1.68	3.441
C -2.672	-0.459	0.981
C -1.77	-0.975	3.135
C -1.668	-0.333	1.902
H -6.493	-0.866	2.844
H -4.918	-3.347	3.546
H -5.575	-2.994	1.948
H -4.613	-1.235	0.571
H -3.015	-2.159	4.403
H -2.578	0.02	0.018
H -0.971	-0.903	3.857
H -0.78	0.23	1.662
N -7.606	-3.318	4.614
C -8.798	-4.058	4.771
C -9.467	-3.853	6.112
O -10.559	-4.375	6.363
C -8.588	-5.523	4.479
O -7.574	-6.066	5.349
C -8.187	-5.724	3.029
H -6.841	-3.518	5.193
H -9.475	-3.678	4.019
H -9.542	-5.981	4.652
H -7.737	-7.025	5.364
H -8.966	-5.345	2.383
H -8.043	-6.776	2.837
H -7.269	-5.191	2.835
N -8.846	-3.065	6.965
C -9.457	-2.755	8.243
C -8.444	-2.638	9.38
C -7.839	-3.957	9.765
O -8.426	-4.681	10.576
O -6.76	-4.312	9.246
H -7.953	-2.725	6.753
H -10.136	-3.566	8.464
H -7.645	-1.98	9.073
H -8.931	-2.216	10.248
H -5.980013605442177	-1.3197687074829931	4.419054421768707
H -10.033651006711409	-1.8623758389261744	8.165442953020134
