65

H -9.15	-0.906	6.622
H -11.435	0.572	7.733
H -9.119	1.688	8.053
H -9.136	1.898	6.312
N -10.417	0.319	4.608
C -10.882	0.373	3.233
C -11.714	-0.858	2.894
O -11.698	-1.864	3.621
C -9.716	0.541	2.246
C -8.82	1.772	2.448
C -7.704	1.801	1.419
C -9.631	3.052	2.394
H -9.48	0.077	4.765
H -11.529	1.235	3.156
H -9.093	-0.338	2.311
H -10.128	0.591	1.249
H -8.358	1.703	3.423
H -7.091	2.677	1.577
H -8.132	1.832	0.429
H -7.097	0.914	1.521
H -8.981	3.901	2.539
H -10.378	3.031	3.173
H -10.116	3.128	1.432
N -12.385	-0.804	1.767
C -13.34	-1.848	1.384
C -12.662	-2.912	0.546
O -13.326	-3.794	-0.004
C -14.533	-1.256	0.598
C -14.207	-0.891	-0.848
O -13.498	0.128	-1.069
O -14.623	-1.624	-1.771
H -12.229	-0.057	1.148
H -13.714	-2.305	2.288
H -15.335	-1.98	0.584
H -14.877	-0.367	1.107
N -11.341	-2.848	0.499
C -10.514	-3.746	-0.303
C -10.854	-5.21	-0.014
O -10.935	-5.631	1.138
C -9.012	-3.504	-0.037
C -8.161	-4.385	-0.931
C -8.659	-2.05	-0.257
H -10.913	-2.169	1.06
H -10.718	-3.538	-1.343
H -8.801	-3.754	0.992
H -8.388	-5.421	-0.731
H -7.115	-4.201	-0.728
H -8.373	-4.162	-1.966
H -8.886	-1.774	-1.275
H -7.605	-1.9	-0.068
H -9.236	-1.435	0.418
N -11.057	-5.959	-1.077
H -10.929	-5.534	-1.96
C -10.26	-1.512	8.135
O -11.214	-1.317	8.866
N -9.901	-0.672	7.198
C -10.637	0.551	7.004
C -11.245	0.561	5.623
O -12.451	0.725	5.474
C -9.759	1.792	7.188
C -10.596	3.06	7.321
O -11.161	3.528	6.325
O -10.706	3.6	8.446
H -9.69951677852349	-2.3795973154362415	8.21038255033557
H -11.344959183673469	-6.947081632653061	-1.0679795918367347
