57

H -1.447	-8.095	-2.814
H -3.061	-10.276	-4.188
H -0.284	-10.348	-3.023
H -0.69	-10.381	-4.739
H -1.157	-11.725	-3.696
H -2.212	-10.032	-1.295
H -2.931	-11.464	-2.015
H -3.842	-9.96	-1.93
N -2.826	-7.52	-5.711
C -2.604	-6.938	-7.028
C -3.805	-7.128	-7.947
C -4.042	-8.575	-8.302
C -5.12	-8.769	-9.331
O -4.863	-8.513	-10.525
O -6.232	-9.191	-8.978
H -3.75	-7.623	-5.396
H -1.758	-7.462	-7.444
H -4.686	-6.747	-7.455
H -3.639	-6.576	-8.861
H -3.116	-8.966	-8.699
H -4.305	-9.116	-7.405
C -7.382	-8.301	-4.427
C -6.298	-7.208	-4.174
O -5.78	-6.607	-5.109
C -8.757	-7.693	-4.61
O -9.718	-8.73	-4.842
H -7.132	-8.853	-5.318
H -9.005	-7.204	-3.677
H -8.764	-6.994	-5.432
H -10.282	-8.922	-4.077
N -5.92	-7.0	-2.913
C -4.914	-5.978	-2.555
C -3.546	-6.491	-2.955
O -2.62	-5.739	-3.179
C -4.98	-5.662	-1.052
C -4.327	-4.344	-0.572
S -2.523	-4.268	-0.68
C -2.073	-5.687	0.307
H -6.298	-7.555	-2.195
H -5.092	-5.083	-3.131
H -6.02	-5.626	-0.76
H -4.512	-6.479	-0.521
H -4.722	-3.536	-1.17
H -4.619	-4.183	0.455
H -2.418	-6.588	-0.178
H -2.555	-5.61	1.272
H -1.002	-5.73	0.439
N -3.446	-7.782	-3.089
C -2.211	-8.418	-3.506
C -1.815	-7.919	-4.927
O -0.626	-7.811	-5.262
C -2.339	-9.965	-3.449
C -1.022	-10.655	-3.749
C -2.86	-10.389	-2.084
H -4.245	-8.323	-2.915
H -7.454789115646259	-8.975027210884354	-3.636510204081633
H -2.3246510067114095	-5.879489932885906	-6.951879194630872
