54

C -2.215	-5.464	-6.922
O -1.68	-4.882	-7.862
N -2.501	-4.875	-5.784
C -2.125	-3.504	-5.501
C -0.654	-3.483	-5.152
O 0.129	-2.815	-5.799
C -2.916	-2.925	-4.292
C -2.472	-1.498	-3.985
C -4.408	-2.967	-4.543
H -2.958	-5.393	-5.089
H -2.307	-2.898	-6.375
H -2.695	-3.535	-3.428
H -2.653	-0.872	-4.845
H -1.418	-1.493	-3.751
H -3.032	-1.122	-3.142
H -4.713	-3.987	-4.721
H -4.645	-2.363	-5.407
H -4.931	-2.58	-3.68
N -0.294	-4.236	-4.124
C 1.082	-4.262	-3.628
C 2.124	-4.672	-4.71
O 3.224	-4.116	-4.749
C 1.235	-5.098	-2.32
C 0.869	-6.559	-2.526
C 2.638	-4.951	-1.741
H -0.993	-4.771	-3.68
H 1.305	-3.231	-3.39
H 0.535	-4.695	-1.602
H 0.987	-7.096	-1.597
H 1.512	-6.99	-3.277
H -0.159	-6.629	-2.85
H 2.824	-3.909	-1.527
H 3.36	-5.298	-2.465
H 2.723	-5.531	-0.833
N 1.754	-5.571	-5.628
C 2.676	-5.952	-6.707
C 2.92	-4.75	-7.649
O 4.014	-4.564	-8.186
C 2.194	-7.211	-7.514
C 0.888	-6.962	-8.251
C 3.27	-7.708	-8.474
H 0.875	-5.999	-5.561
H 3.62	-6.174	-6.227
H 2.004	-7.995	-6.795
H 1.02	-6.148	-8.948
H 0.118	-6.702	-7.54
H 0.597	-7.854	-8.786
H 4.156	-7.977	-7.918
H 3.513	-6.926	-9.179
H 2.905	-8.573	-9.009
N 1.914	-3.905	-7.778
H 1.079	-4.078	-7.295
H -2.48651677852349	-6.492832214765101	-6.995986577181208
H 1.9840816326530613	-3.0827551020408164	-8.344897959183674
