53

C 10.21	-4.033	-3.823
C 9.861	-4.502	-2.432
O 10.56	-4.195	-1.442
C 11.116	-5.031	-4.538
C 11.161	-4.829	-6.043
C 11.884	-5.966	-6.756
C 11.21	-7.326	-6.514
N 9.776	-7.343	-6.906
H 9.278	-3.984	-4.369
H 12.12	-4.937	-4.149
H 10.754	-6.03	-4.341
H 10.15	-4.776	-6.418
H 11.671	-3.9	-6.254
H 11.89	-5.767	-7.817
H 12.901	-6.01	-6.393
H 11.731	-8.075	-7.092
H 11.293	-7.567	-5.465
H 9.405	-8.317	-6.842
H 9.61	-7.002	-7.877
H 9.196	-6.767	-6.254
N 8.794	-5.252	-2.363
C 8.228	-5.711	-1.128
C 7.943	-7.214	-1.252
O 6.971	-7.605	-1.909
C 6.883	-4.968	-0.831
C 7.049	-3.446	-1.013
C 6.417	-5.274	0.593
C 5.766	-2.659	-0.921
H 8.371	-5.546	-3.205
H 8.923	-5.524	-0.321
H 6.133	-5.328	-1.519
H 7.711	-3.073	-0.246
H 7.492	-3.257	-1.98
H 6.269	-6.339	0.701
H 5.487	-4.761	0.785
H 7.167	-4.939	1.297
H 5.088	-2.999	-1.69
H 5.978	-1.61	-1.069
H 5.318	-2.807	0.049
N 8.827	-8.072	-0.697
C 8.651	-9.531	-0.717
C 9.829	-10.045	0.115
C 10.85	-8.978	-0.001
C 10.08	-7.692	-0.037
H 8.708	-9.924	-1.722
H 9.515	-10.187	1.138
H 10.186	-10.979	-0.293
H 11.507	-9.005	0.856
H 11.413	-9.103	-0.914
H 9.894	-7.332	0.963
H 10.609	-6.95	-0.618
H 10.59287074829932	-3.0532585034013606	-3.8375578231292518
H 7.703798657718121	-9.829738255033556	-0.2602751677852348
