67

C 3.086	9.466	2.488
O 2.269	8.673	2.051
N 3.023	10.764	2.244
C 1.915	11.326	1.479
C 2.004	10.857	0.046
O 1.031	10.385	-0.534
C 1.924	12.857	1.526
C 1.653	13.452	2.895
C 0.276	13.107	3.404
O -0.701	13.184	2.62
O 0.135	12.729	4.575
H 3.744	11.363	2.546
H 0.995	10.958	1.905
H 2.893	13.204	1.198
H 1.178	13.227	0.841
H 2.385	13.057	3.583
H 1.749	14.526	2.839
N 3.206	10.927	-0.478
C 3.503	10.534	-1.841
C 3.268	9.032	-2.026
O 2.773	8.586	-3.059
C 4.952	10.881	-2.142
C 5.277	12.349	-1.934
C 6.747	12.638	-2.025
O 7.235	12.916	-3.15
O 7.446	12.577	-0.999
H 3.93	11.263	0.09
H 2.863	11.088	-2.511
H 5.593	10.301	-1.494
H 5.169	10.631	-3.17
H 4.768	12.928	-2.69
H 4.924	12.645	-0.958
N 3.605	8.266	-1.016
C 3.416	6.848	-1.067
C 1.919	6.507	-0.984
O 1.401	5.812	-1.84
C 4.21	6.098	0.039
C 5.735	6.265	-0.161
C 3.841	4.622	0.061
C 6.283	5.762	-1.495
H 4.002	8.687	-0.22
H 3.826	6.566	-2.026
H 3.939	6.522	0.995
H 5.981	7.315	-0.091
H 6.247	5.736	0.629
H 4.401	4.121	0.836
H 4.075	4.18	-0.896
H 2.784	4.518	0.257
H 5.814	6.289	-2.313
H 6.091	4.705	-1.608
H 7.352	5.918	-1.551
N 1.228	7.025	0.03
C -0.201	6.737	0.22
C -0.757	7.323	1.555
C -2.248	7.104	1.674
C -0.076	6.668	2.734
H 1.67	7.629	0.67
H -0.273	5.659	0.264
H -0.552	8.381	1.594
H -2.605	7.52	2.604
H -2.457	6.044	1.651
H -2.75	7.586	0.848
H 0.987	6.853	2.691
H -0.265	5.605	2.708
H -0.48	7.079	3.647
H 3.9145100671140938	9.105838926174496	3.0428993288590602
H -0.809248322147651	7.060872483221476	-0.6460536912751679
