48

C 3.02	0.338	7.493
O 4.212	0.075	7.46
N 2.256	0.344	6.41
C 2.765	-0.044	5.099
C 3.831	0.92	4.62
O 4.788	0.533	3.943
C 1.64	-0.124	4.087
H 1.314	0.604	6.494
H 3.202	-1.025	5.205
H 1.194	0.852	3.968
H 0.892	-0.824	4.43
H 2.034	-0.456	3.138
N 3.683	2.168	4.998
C 4.602	3.173	4.62
C 5.933	3.058	5.357
O 6.944	3.504	4.851
C 3.998	4.569	4.77
O 3.183	4.601	5.936
C 3.177	4.947	3.557
H 2.936	2.451	5.562
H 4.767	3.004	3.569
H 4.806	5.273	4.892
H 2.255	4.548	5.669
H 3.805	4.941	2.679
H 2.764	5.935	3.699
H 2.372	4.237	3.431
N 5.924	2.385	6.507
C 7.118	2.201	7.333
C 6.751	1.443	8.626
C 7.916	1.123	9.563
C 8.5	2.368	10.203
C 9.678	2.014	11.099
N 10.18	3.184	11.84
H 5.078	1.994	6.81
H 7.489	3.182	7.591
H 6.043	2.04	9.18
H 6.273	0.513	8.352
H 7.565	0.467	10.344
H 8.688	0.624	8.995
H 8.833	3.04	9.427
H 7.737	2.848	10.798
H 9.363	1.263	11.808
H 10.473	1.613	10.486
H 10.436	3.963	11.194
H 11.03	2.928	12.385
H 9.458	3.524	12.512
H 2.5509530201342283	0.6318523489932886	8.396892617449664
H 7.888543624161074	1.6487651006711408	6.776456375838926
