38

H -1.4	10.521	-4.049
N -0.072	7.155	-3.984
C 0.172	6.145	-4.98
C -0.531	4.85	-4.614
O -1.037	4.153	-5.476
H 0.618	7.371	-3.319
H -0.2	6.493	-5.933
H 1.233	5.956	-5.059
N -0.562	4.542	-3.322
C -1.257	3.357	-2.817
C -1.144	3.259	-1.284
C 0.247	3.023	-0.71
C 0.204	3.059	0.811
C 0.785	1.69	-1.185
H -0.083	5.131	-2.696
H -0.809	2.481	-3.261
H -1.525	4.179	-0.863
H -1.782	2.451	-0.958
H 0.913	3.802	-1.051
H 1.193	2.876	1.204
H -0.476	2.303	1.171
H -0.137	4.031	1.135
H 0.82	1.682	-2.264
H 0.135	0.898	-0.843
H 1.779	1.538	-0.792
C -1.048	7.188	-0.986
O -1.982	6.484	-1.39
N -0.688	8.315	-1.589
C -1.379	8.802	-2.785
C -1.222	7.807	-3.939
O -2.133	7.625	-4.754
C -0.852	10.166	-3.188
H 0.044	8.853	-1.21
H -2.428	8.891	-2.544
H 0.196	10.082	-3.44
H -0.975	10.858	-2.369
H -0.4568053691275168	6.873208053691275	-0.14422818791946312
H -2.3047382550335573	3.402959731543624	-3.093476510067114
