46

C -2.716	3.421	-3.202
O -3.254	2.505	-3.829
N -3.332	4.542	-2.886
C -4.73	4.75	-3.153
C -5.021	4.837	-4.643
O -6.139	4.655	-5.044
C -5.234	5.973	-2.436
H -2.822	5.261	-2.446
H -5.26	3.895	-2.76
H -5.011	5.889	-1.384
H -6.304	6.024	-2.576
H -4.767	6.855	-2.846
N -4.004	5.096	-5.448
C -4.129	5.15	-6.866
C -4.468	3.756	-7.39
O -5.481	3.565	-8.075
C -2.819	5.699	-7.438
C -2.64	5.526	-8.904
C -3.616	6.31	-9.749
O -3.393	7.497	-9.987
O -4.655	5.75	-10.15
H -3.096	5.245	-5.119
H -4.942	5.804	-7.135
H -2.77	6.756	-7.223
H -1.999	5.21	-6.934
H -1.624	5.777	-9.173
H -2.818	4.468	-9.001
N -3.674	2.769	-7.012
C -3.96	1.423	-7.437
C -2.749	0.415	-7.326
C -1.538	0.83	-8.201
C -3.191	-0.969	-7.747
C -0.693	1.958	-7.658
H -2.893	2.964	-6.449
H -4.255	1.508	-8.474
H -2.44	0.368	-6.292
H -0.889	-0.022	-8.327
H -1.907	1.128	-9.171
H -3.991	-1.284	-7.095
H -2.361	-1.656	-7.688
H -3.558	-0.913	-8.761
H -0.263	1.66	-6.713
H -1.306	2.835	-7.517
H 0.101	2.18	-8.357
H -1.6976375838926174	3.376328859060403	-2.933275167785235
H -4.845442953020134	1.040959731543624	-6.891228187919463
