47

C -5.193	0.891	-6.677
O -6.039	0.201	-7.247
N -5.335	1.276	-5.408
C -6.489	0.851	-4.621
C -7.809	1.475	-5.158
O -8.885	0.928	-4.983
C -6.325	1.059	-3.067
C -7.536	0.554	-2.314
C -5.108	0.325	-2.545
H -4.642	1.841	-4.996
H -6.57	-0.208	-4.82
H -6.199	2.113	-2.864
H -7.666	-0.502	-2.505
H -8.413	1.087	-2.65
H -7.401	0.712	-1.255
H -4.214	0.698	-3.023
H -5.214	-0.732	-2.751
H -5.04	0.471	-1.478
N -7.709	2.584	-5.853
C -8.876	3.206	-6.489
C -9.32	2.375	-7.686
O -10.496	2.305	-8.013
C -8.572	4.654	-6.914
C -9.729	5.327	-7.636
O -9.816	5.289	-8.847
N -10.619	5.931	-6.896
H -6.842	3.042	-5.927
H -9.679	3.207	-5.765
H -8.342	5.237	-6.035
H -7.713	4.65	-7.569
H -10.493	5.92	-5.918
H -11.389	6.364	-7.325
N -8.376	1.717	-8.296
C -8.648	0.869	-9.425
C -7.369	0.693	-10.257
C -7.549	-0.119	-11.521
C -8.595	0.475	-12.426
O -8.297	1.432	-13.151
O -9.731	-0.033	-12.447
H -7.454	1.82	-7.98
H -9.402	1.343	-10.036
H -7.001	1.67	-10.536
H -6.626	0.205	-9.644
H -6.609	-0.153	-12.053
H -7.85	-1.12	-11.253
H -4.33238255033557	1.2623288590604027	-7.207469798657718
H -9.022859060402684	-0.10405369127516784	-9.076711409395973
