47

C -11.757	4.384	-2.764
C -11.134	5.655	-3.343
O -10.275	5.587	-4.223
C -11.054	3.978	-1.425
C -9.758	3.158	-1.632
C -12.011	3.259	-0.503
C -8.593	3.909	-2.256
H -12.787	4.626	-2.538
H -10.801	4.904	-0.929
H -9.421	2.788	-0.676
H -9.987	2.315	-2.267
H -12.832	3.924	-0.277
H -11.494	3.007	0.412
H -12.384	2.366	-0.98
H -8.881	4.266	-3.234
H -7.746	3.246	-2.353
H -8.327	4.75	-1.631
N -11.581	6.821	-2.899
C -11.022	8.08	-3.337
C -9.622	8.248	-2.768
O -9.399	8.011	-1.573
C -11.968	9.138	-2.741
C -13.155	8.381	-2.257
C -12.668	7.012	-1.936
H -10.996	8.158	-4.414
H -11.472	9.652	-1.932
H -12.242	9.847	-3.508
H -13.557	8.851	-1.372
H -13.906	8.338	-3.034
H -12.301	6.97	-0.922
H -13.451	6.284	-2.09
N -8.697	8.677	-3.597
C -7.309	8.844	-3.188
C -6.383	9.195	-4.391
C -6.408	8.091	-5.435
C -6.789	10.515	-5.021
H -8.961	8.914	-4.512
H -6.985	7.905	-2.764
H -5.371	9.287	-4.025
H -7.417	7.968	-5.799
H -6.073	7.168	-4.987
H -5.759	8.353	-6.257
H -6.71	11.295	-4.279
H -7.821	10.443	-5.334
H -6.155	10.74	-5.866
H -11.80212925170068	3.5935102040816327	-3.472965986394558
H -7.224979865771812	9.61813422818792	-2.410275167785235
