47

H -4.371	10.718	6.405
H -6.031	12.369	6.147
H -5.322	12.116	4.551
H -7.229	10.845	3.849
H -7.911	10.878	5.479
H -8.148	13.284	5.365
H -7.388	13.309	3.775
H -9.248	12.104	2.882
H -9.784	13.481	3.648
H -9.986	11.977	4.405
N -3.014	8.605	6.302
C -2.193	7.575	6.981
C -2.99	6.791	8.025
O -2.556	5.738	8.487
C -0.928	8.175	7.644
C 0.301	8.473	6.757
C 0.842	7.207	6.139
C 0.007	9.503	5.69
H -2.879	9.549	6.55
H -1.879	6.88	6.217
H -1.216	9.105	8.112
H -0.618	7.495	8.424
H 1.082	8.859	7.397
H 1.681	7.445	5.502
H 0.069	6.729	5.555
H 1.168	6.545	6.925
H -0.785	9.142	5.05
H 0.896	9.672	5.098
H -0.298	10.43	6.152
N -4.172	7.274	8.35
H -4.491	8.069	7.875
C -5.722	8.498	2.725
O -4.831	8.916	1.985
N -5.81	8.821	4.002
C -4.715	9.425	4.731
C -3.938	8.286	5.407
O -4.227	7.123	5.149
C -5.22	10.414	5.81
C -5.937	11.678	5.325
C -7.325	11.424	4.755
C -8.019	12.738	4.442
N -9.342	12.552	3.816
H -6.637	8.645	4.496
H -4.072	9.931	4.027
H -5.907	9.888	6.456
H -6.543530201342282	7.941006711409396	2.3341275167785236
H -4.757632653061225	6.844489795918368	9.067469387755102
