32

C        -1.4924262320   -1.2371079219    0.5458171959
C        -2.5768536638   -1.0814069081   -0.2022552171
C        -3.4151809034    0.1741578161   -0.2060270177
C        -2.6831462081    1.4331404573    0.3364104968
C        -1.2144925377    1.1844318033    0.6911595048
C        -1.1103300951   -0.1186150980    1.4941996608
C         2.8288398319   -1.0490518060   -0.0661998147
C         1.4999237972   -0.7434401887   -0.3514731552
C         1.1121256119    0.6042562206   -0.2815473645
C         2.0423938465    1.5813445449    0.0535059969
C         3.3618535643    1.2536765018    0.3303720271
C         3.7538087322   -0.0719719756    0.2747479787
C        -0.4856881501   -2.3301223595    0.2842429057
C         0.5651448516   -1.8765384991   -0.7569225834
C        -0.3053600274    1.0903082405   -0.5353966223
O        -0.6540119781    1.4299035106   -1.6213265716
H        -2.8466468177   -1.8481598396   -0.9220288151
H        -3.7292428543    0.3524641289   -1.2362927543
H        -4.3381040672    0.0133750411    0.3598163993
H        -3.1805479553    1.7797247335    1.2449654290
H        -2.7531831398    2.2399589888   -0.3910854075
H        -0.8370668530    2.0249186927    1.2850771546
H        -0.1120855221   -0.2645065894    1.9007911557
H        -1.7929598610   -0.0743555525    2.3465286449
H         3.1510828865   -2.0809811342   -0.1213059002
H         1.7314683536    2.6178660981    0.0917241141
H         4.0721597195    2.0293738156    0.5828731049
H         4.7776087079   -0.3502019675    0.4869887378
H         0.0128848019   -2.6359026579    1.2081912925
H        -0.9890478632   -3.2116120518   -0.1182025641
H         0.0352270635   -1.5931609088   -1.6682507016
H         1.1853264248   -2.7372382729   -1.0126185356
