16

H 2.8139908528	-2.0624208987	-0.0277144078
N 3.4924579019	-1.3305917889	0.084315182
C 3.0237804157	-0.1163204172	-0.2135734446
C 1.739410232	0.1100682036	-0.6614771301
H 1.4725133397	1.1079310112	-0.9581512248
C 0.7672840651	-0.9330463344	-0.7627074036
C -0.6534721285	-0.5393382233	-1.2299490034
O 0.9192645171	-2.1047962883	-0.5180427148
F -0.6907530337	0.7052843176	-1.7176690849
F -1.0356899013	-1.364304924	-2.199144469
C -1.6772952313	-0.624745314	-0.0804385493
F -1.1370575215	-0.0710306547	1.0011365089
F -1.9265174218	-1.9051278637	0.1789235163
H 4.295610707140817	-1.5630702353897958	0.6597698724040817
H 3.6788823012452054	0.7219770935178085	-0.13755543293424655
H -2.6276330191210526	-0.1319254737703947	-0.27521060481052634
