12

C 3.9434426781	1.060520319	-0.1068558513
C 5.0864232224	1.1308277941	-0.9008960632
C 5.9133808176	2.2408220525	-0.8367838733
C 5.6130513749	3.2845374581	0.0298341999
C 4.4778239477	3.217768821	0.822909743
C 3.6393979548	2.1128075528	0.7494215535
H 5.31925683	0.3214314767	-1.5797582973
H 6.7919251315	2.2928979936	-1.4656289474
H 6.2614630433	4.1488225397	0.0821659058
H 4.2378413667	4.0281084197	1.4978613734
H 2.7488336242	2.0664240869	1.3607105006
H 3.2883407925547945	0.22222280828219165	-0.18287386296575342
