11

C 4.6499428271	-1.6656342559	0.9136469417
C 4.2210546589	-1.8977176257	2.3626726375
C 5.3501241097	-2.8845646748	0.320345062
H 5.3358335511	-0.823848378	0.887030227
H 6.2244384687	-3.1498800414	0.9173576099
H 4.6817119998	-3.7495252406	0.3011121452
H 5.6759802229	-2.6863051271	-0.7018387727
H 5.0851694774	-2.1474319075	2.9822655858
H 3.7512328756	-1.0036363423	2.7762661142
H 3.5040176023	-2.7197692521	2.4301861743
H 3.8074197863081634	-1.4217598071312925	0.30998368804081633
