22

H 0.761149515	1.0064654501	1.6328480506
C 0.9374666464	-3.1438364258	0.3623542687
C -0.359875061	-3.3203981888	-0.0647539095
C -1.1986341181	-2.2185171823	-0.2209313735
C -0.7526267795	-0.9329849483	0.0680360427
C 0.5979565258	-0.7582955818	0.4335234931
C 1.4259922868	-1.8631293398	0.6047929581
H -1.7570627814	-4.5168285695	-0.4210176045
C 1.1071019154	0.6701282933	0.6491734364
H -2.4839527543	-1.3170419108	-2.3632425502
N 2.5718874705	0.6833075602	0.7186222136
H -1.9961349173	-3.011932153	-2.6059429753
H -3.6963109758	-2.6139669453	-2.2593870788
O -0.8156237449	-4.5623407335	-0.3219418444
O -2.4712848315	-2.4945806835	-0.65839609
C -2.6619672133	-2.3462736223	-2.0525694544
H 1.5638004571	-4.014320244	0.5003266688
H -1.3792285831164386	-0.0760917902397259	0.034106010217808215
H 2.4221789960026845	-1.7485564847503356	0.9415393762315436
H 0.6484737491131578	1.3228918864269739	-0.07167313991447366
H 2.917643998287755	-0.0053574728857143095	1.372339741555102
H 3.1526033260416666	1.0998803735375	0.07383766359166666
