17

C -0.8372540077	-1.1660666135	0.3524898239
C -1.404423585	0.1613358724	-0.186289366
C -0.6980334053	1.4973821217	0.1092246607
C -2.8279891681	-0.380027965	0.110345774
C -1.3318579131	0.5740129101	-1.6945365825
H -3.6107739455	-0.1000130442	-0.5944516365
H -3.1953239416	-0.1933620911	1.117603604
H -2.1800244045	0.2879574006	-2.3165767706
H -0.4262766987	0.2593312069	-2.1964068342
H 0.12423857855263176	-1.3827354961269736	-0.0892928959394737
H -1.795626604675658	-1.6117775514105261	0.07107134175657892
H -0.7881538414348684	-1.1877161210980263	1.4366248905157895
H 0.4014886096993421	1.3167675752809211	0.18425129512960525
H -1.0880202646519737	1.876370837026316	-0.8225262802414475
H -0.6766208331519737	2.025771164924342	1.0526626104703947
H -2.384988987688816	-1.379068740999342	-0.00061604143750002
H -1.2756656781453948	1.603004952013158	-1.356534543030921
