23

C -3.4151809034	0.1741578161	-0.2060270177
C -2.6831462081	1.4331404573	0.3364104968
C -1.2144925377	1.1844318033	0.6911595048
C 2.8288398319	-1.049051806	-0.0661998147
C 1.4999237972	-0.7434401887	-0.3514731552
C 1.1121256119	0.6042562206	-0.2815473645
C 2.0423938465	1.5813445449	0.0535059969
C 3.3618535643	1.2536765018	0.3303720271
C 3.7538087322	-0.0719719756	0.2747479787
C -0.3053600274	1.0903082405	-0.5353966223
O -0.6540119781	1.4299035106	-1.6213265716
H -3.7292428543	0.3524641289	-1.2362927543
H -4.3381040672	0.0133750411	0.3598163993
H -3.1805479553	1.7797247335	1.244965429
H -2.7531831398	2.2399589888	-0.3910854075
H -0.837066853	2.0249186927	1.2850771546
H 3.1510828865	-2.0809811342	-0.1213059002
H 1.7314683536	2.6178660981	0.0917241141
H 4.0721597195	2.0293738156	0.5828731049
H 4.7776087079	-0.3502019675	0.4869887378
H -2.8131606709355705	-0.7274893348355704	-0.20331840921543623
H -1.141167660343421	0.26715536620065783	1.2564575093526318
H 0.8474606405395974	-1.534327599985906	-0.6344714138093959
