6

C -1.492426232	-1.2371079219	0.5458171959
C -2.5768536638	-1.0814069081	-0.2022552171
H -2.8466468177	-1.8481598396	-0.9220288151
H -1.2257282572510066	-0.4564149441442954	1.2077754264342282
H -0.7897365640966442	-2.000017328010067	0.363241852404698
H -3.1619948243261744	-0.2050395838261746	-0.20488788329060403
