52

N -12.826	8.668	-0.535
C -13.282	9.541	-1.602
C -12.382	9.348	-2.8
O -12.846	9.261	-3.943
C -13.145	10.999	-1.198
C -13.56	11.337	0.209
C -13.276	12.791	0.461
C -13.281	13.142	1.931
N -12.243	12.398	2.685
H -12.348	9.037	0.238
H -14.312	9.331	-1.841
H -12.105	11.267	-1.299
H -13.723	11.602	-1.882
H -14.614	11.139	0.336
H -12.981	10.742	0.899
H -12.309	13.02	0.044
H -14.031	13.367	-0.051
H -13.095	14.2	2.035
H -14.251	12.908	2.345
H -11.311	12.378	2.217
H -12.162	12.786	3.648
H -12.518	11.403	2.791
N -11.086	9.247	-2.534
C -10.107	9.101	-3.603
C -9.809	7.64	-3.834
O -9.131	7.282	-4.804
C -8.799	9.787	-3.218
C -8.898	11.251	-2.829
C -9.428	12.117	-3.943
N -9.343	13.534	-3.58
C -10.225	14.475	-3.912
N -11.333	14.155	-4.579
N -10.006	15.738	-3.559
H -10.778	9.31	-1.592
H -10.488	9.557	-4.503
H -8.379	9.263	-2.37
H -8.115	9.7	-4.05
H -9.566	11.337	-1.985
H -7.921	11.605	-2.538
H -8.849	11.939	-4.837
H -10.463	11.863	-4.119
H -8.532	13.753	-3.062
H -11.546	13.212	-4.848
H -12.014	14.838	-4.854
H -9.192	16.022	-3.046
H -10.646	16.474	-3.792
N -10.341	6.804	-2.941
H -10.914	7.196	-2.25
C -13.022	7.363	-0.582
O -13.559	6.796	-1.529
H -12.672308724832215	6.80810067114094	0.24441610738255037
H -10.182102040816327	5.802040816326531	-2.930591836734694
