54

C -10.112	5.36	-2.926
C -8.62	5.067	-2.735
O -8.089	4.04	-3.182
C -10.66	4.689	-4.185
C -12.159	4.858	-4.374
C -12.676	4.068	-5.539
O -12.517	4.51	-6.699
O -13.234	2.973	-5.33
H -10.632	4.976	-2.059
H -10.162	5.112	-5.044
H -10.438	3.633	-4.139
H -12.664	4.525	-3.479
H -12.375	5.904	-4.54
N -7.964	5.945	-2.016
C -6.562	5.814	-1.772
C -6.286	5.695	-0.293
O -7.153	5.946	0.529
C -5.78	7.007	-2.337
O -6.305	8.238	-1.793
C -5.857	7.047	-3.85
H -8.449	6.701	-1.619
H -6.217	4.918	-2.262
H -4.75	6.874	-2.038
H -6.285	8.181	-0.829
H -6.89	7.138	-4.154
H -5.3	7.9	-4.206
H -5.434	6.144	-4.264
N -5.103	5.324	0.03
C -4.677	5.207	1.376
C -3.21	5.523	1.471
O -2.464	5.334	0.511
C -4.945	3.802	1.87
S -4.268	2.532	0.79
H -4.448	5.107	-0.672
H -5.238	5.902	1.983
H -4.5	3.692	2.848
H -6.012	3.662	1.953
H -3.409	3.13	-0.025
N -2.801	6.002	2.592
C -1.42	6.271	2.83
C -1.208	7.558	3.669
C 0.27	7.768	3.974
C -1.765	8.768	2.935
H -3.461	6.141	3.307
H -0.923	6.375	1.878
H -1.742	7.449	4.602
H 0.821	7.855	3.048
H 0.395	8.664	4.562
H 0.639	6.916	4.526
H -2.82	8.626	2.752
H -1.618	9.654	3.534
H -1.245	8.879	1.993
H -10.278687074829932	6.411074829931973	-2.9369183673469386
H -1.0085167785234899	5.417872483221476	3.3448926174496645
