80

C -0.847	5.083	3.547
O -1.455	4.577	4.504
N 0.278	4.619	3.09
C 0.901	3.473	3.665
C 2.315	3.82	4.098
O 2.964	4.691	3.506
C 0.948	2.266	2.669
C -0.442	1.851	2.201
C 1.851	2.566	1.476
H 0.718	5.062	2.327
H 0.325	3.183	4.532
H 1.366	1.426	3.203
H -0.909	2.675	1.683
H -0.349	1.01	1.526
H -1.044	1.561	3.049
H 2.85	2.71	1.862
H 1.854	1.72	0.804
H 1.526	3.461	0.963
N 2.758	3.179	5.135
C 4.092	3.348	5.648
C 4.918	2.139	5.305
O 4.574	1.021	5.686
C 4.103	3.569	7.183
C 5.536	3.538	7.73
C 3.431	4.893	7.523
H 2.151	2.546	5.584
H 4.525	4.212	5.168
H 3.542	2.77	7.644
H 6.149	4.269	7.22
H 5.527	3.724	8.792
H 5.945	2.553	7.544
H 2.407	4.878	7.179
H 3.448	5.045	8.592
H 3.946	5.707	7.037
N 5.983	2.362	4.579
C 6.875	1.31	4.167
C 7.612	0.751	5.342
O 8.412	1.45	5.999
C 7.837	1.792	3.109
C 7.16	2.144	1.823
C 6.73	1.141	0.965
C 6.948	3.462	1.455
C 6.107	1.44	-0.215
C 6.328	3.765	0.273
C 5.908	2.751	-0.558
O 5.244	3.045	-1.724
H 6.188	3.294	4.344
H 6.267	0.522	3.745
H 8.349	2.672	3.472
H 8.556	1.013	2.908
H 6.892	0.11	1.242
H 7.288	4.257	2.106
H 5.779	0.652	-0.879
H 6.177	4.799	0.0
H 5.594	3.833	-2.173
N 7.352	-0.483	5.594
C 7.861	-1.173	6.716
C 9.359	-1.441	6.558
O 9.812	-1.948	5.528
C 7.094	-2.486	6.833
O 5.684	-2.191	6.907
C 7.525	-3.278	8.047
H 6.799	-0.986	4.954
H 7.674	-0.595	7.608
H 7.283	-3.051	5.935
H 5.601	-1.265	7.163
H 7.298	-2.713	8.937
H 7.013	-4.228	8.065
H 8.592	-3.432	7.98
N 10.112	-1.09	7.573
C 11.526	-1.297	7.564
C 12.267	-0.076	7.11
O 13.478	0.024	7.3
H 9.7	-0.675	8.362
H 11.851	-1.556	8.56
H 11.756	-2.112	6.893
N 11.55	0.856	6.514
H 10.582	0.723	6.421
H -1.2469463087248323	5.912208053691275	3.0465436241610737
H 11.980897959183674	1.685183673469388	6.1559591836734695
