56

O 5.439	5.152	-3.328
H 3.279	6.065	2.216
H 3.54	8.19	0.301
H 5.286	6.67	-0.317
H 4.217	5.292	-0.116
H 3.289	5.549	-2.046
H 3.454	7.291	-2.125
N 1.254	7.537	-0.623
C -0.153	7.38	-0.838
C -0.837	8.728	-0.988
C -2.331	8.622	-1.203
C -2.986	9.953	-1.319
O -3.004	10.53	-2.431
O -3.53	10.438	-0.317
H 1.758	8.16	-1.186
H -0.57	6.864	0.013
H -0.656	9.312	-0.098
H -0.407	9.237	-1.836
H -2.511	8.069	-2.113
H -2.764	8.089	-0.369
C 7.062	6.107	4.429
O 6.579	5.017	4.709
N 6.372	7.09	3.988
C 4.964	6.998	3.832
C 4.609	7.518	2.464
O 5.194	8.497	1.998
C 4.234	7.71	5.001
C 4.34	9.235	5.067
C 3.253	9.904	4.243
N 3.241	11.366	4.386
C 2.168	12.148	4.16
N 1.023	11.608	3.748
N 2.247	13.456	4.345
H 6.834	7.912	3.717
H 4.723	5.944	3.847
H 3.186	7.453	4.964
H 4.654	7.306	5.912
H 4.273	9.568	6.091
H 5.3	9.504	4.652
H 3.393	9.648	3.204
H 2.315	9.501	4.594
H 4.093	11.762	4.683
H 0.931	10.625	3.595
H 0.201	12.159	3.574
H 3.097	13.896	4.651
H 1.471	14.078	4.203
N 3.726	6.841	1.812
C 3.361	7.14	0.476
C 1.888	6.84	0.283
O 1.336	5.987	0.982
C 4.272	6.323	-0.437
C 3.967	6.375	-1.89
C 5.221	6.214	-2.723
O 6.019	7.163	-2.783
H 8.076872483221477	6.265442953020134	4.513456375838926
H -0.3131409395973155	6.773906040268456	-1.7141073825503355
