52

C -9.123	-10.729	-7.451
C -9.32	-9.219	-7.627
O -8.376	-8.438	-7.569
C -8.24	-11.304	-8.554
H -8.629	-10.873	-6.5
H -8.747	-11.141	-9.493
H -7.285	-10.8	-8.56
H -8.103	-12.364	-8.398
N -10.554	-8.825	-7.823
C -10.925	-7.439	-8.007
C -11.585	-6.906	-6.748
O -12.086	-5.786	-6.709
C -11.86	-7.311	-9.19
H -11.24	-9.526	-7.854
H -10.028	-6.872	-8.21
H -12.76	-7.874	-8.993
H -12.111	-6.272	-9.343
H -11.376	-7.701	-10.072
N -11.562	-7.709	-5.714
C -12.123	-7.349	-4.439
C -10.946	-7.055	-3.505
O -11.059	-7.007	-2.284
C -12.989	-8.505	-3.919
O -13.812	-8.112	-2.832
H -11.136	-8.592	-5.791
H -12.72	-6.458	-4.567
H -13.623	-8.862	-4.717
H -12.345	-9.308	-3.592
H -13.954	-8.88	-2.262
N -9.82	-6.798	-4.133
C -8.57	-6.494	-3.479
C -8.497	-4.953	-3.343
O -7.452	-4.349	-3.267
C -7.449	-7.09	-4.375
C -6.085	-7.428	-3.732
C -5.367	-8.433	-4.594
C -5.211	-6.204	-3.592
H -9.835	-6.822	-5.112
H -8.542	-6.955	-2.503
H -7.833	-7.999	-4.813
H -7.272	-6.39	-5.178
H -6.242	-7.864	-2.756
H -5.234	-8.021	-5.583
H -4.406	-8.665	-4.158
H -5.967	-9.329	-4.647
H -5.715	-5.486	-2.961
H -4.263	-6.478	-3.156
H -5.048	-5.75	-4.559
N -9.657	-4.341	-3.32
H -10.473	-4.875	-3.404
H -10.070714285714287	-11.24725850340136	-7.373843537414966
H -9.729857142857144	-3.3473673469387757	-3.2193877551020407
