59

N -8.403	-1.993	5.253
C -8.752	-1.214	6.418
C -7.485	-0.646	7.031
O -6.392	-1.186	6.813
C -9.519	-2.057	7.434
C -8.668	-3.049	8.186
C -9.52	-4.036	8.966
C -10.242	-5.021	8.05
N -9.306	-5.956	7.382
H -7.651	-2.618	5.325
H -9.369	-0.393	6.094
H -9.982	-1.396	8.152
H -10.293	-2.594	6.907
H -8.005	-3.539	7.487
H -8.059	-2.488	8.88
H -8.891	-4.579	9.654
H -10.252	-3.463	9.514
H -10.932	-5.595	8.649
H -10.797	-4.478	7.301
H -8.424	-5.498	7.057
H -9.017	-6.681	8.069
H -9.764	-6.446	6.589
N -7.62	0.433	7.761
C -6.496	1.049	8.428
C -5.915	0.085	9.471
O -6.665	-0.551	10.24
C -6.9	2.4	9.091
C -5.749	3.013	9.862
C -7.403	3.375	8.045
H -8.516	0.825	7.86
H -5.739	1.237	7.68
H -7.702	2.221	9.787
H -4.922	3.199	9.192
H -6.066	3.946	10.304
H -5.435	2.333	10.64
H -8.255	2.953	7.533
H -7.692	4.298	8.526
H -6.614	3.572	7.333
N -4.608	-0.07	9.448
C -3.946	-0.924	10.394
C -3.582	-2.267	9.807
O -3.066	-3.142	10.511
H -4.07	0.415	8.785
H -3.042	-0.434	10.719
H -4.601	-1.069	11.242
N -3.84	-2.443	8.533
C -3.528	-3.701	7.865
C -4.649	-4.16	6.9
C -5.85	-4.817	7.559
O -5.905	-4.92	8.811
O -6.776	-5.281	6.817
H -4.211	-1.706	8.001
H -3.399	-4.45	8.633
H -5.03	-3.294	6.38
H -4.227	-4.847	6.183
C -9.035	-1.826	4.115
O -10.017	-1.071	3.997
H -8.704154362416107	-2.3941610738255035	3.2885838926174498
H -2.603778523489933	-3.6040536912751677	7.322818791946309
