52

H 11.064	-2.627	0.025
H 8.888	-0.791	-3.119
H 13.16	-2.267	-1.203
H 10.972	-0.401	-4.346
H 13.448	-0.212	-3.902
N 6.916	-3.833	1.266
C 5.9	-3.979	2.294
C 6.548	-4.906	3.315
C 8.01	-4.687	3.158
C 8.236	-4.342	1.717
H 4.999	-4.429	1.901
H 6.214	-4.63	4.303
H 6.278	-5.932	3.112
H 8.325	-3.869	3.79
H 8.546	-5.587	3.417
H 8.993	-3.577	1.635
H 8.528	-5.215	1.156
C 7.101	-3.689	-4.559
C 7.815	-3.798	-3.232
O 8.862	-4.446	-3.122
C 6.431	-5.036	-4.85
C 5.87	-5.037	-6.269
C 5.339	-5.286	-3.819
C 5.153	-6.305	-6.682
H 6.337	-2.93	-4.499
H 7.179	-5.804	-4.754
H 5.207	-4.192	-6.366
H 6.694	-4.883	-6.95
H 4.687	-4.425	-3.827
H 4.787	-6.183	-4.053
H 5.797	-5.361	-2.843
H 4.358	-6.52	-5.984
H 4.75	-6.185	-7.676
H 5.857	-7.123	-6.683
N 7.259	-3.17	-2.251
C 7.791	-3.163	-0.918
C 6.655	-3.274	0.08
O 5.519	-2.877	-0.23
C 8.562	-1.886	-0.661
C 9.838	-1.721	-1.456
C 9.834	-1.097	-2.692
C 11.049	-2.137	-0.938
C 11.002	-0.899	-3.39
C 12.224	-1.934	-1.625
C 12.198	-1.313	-2.849
O 13.375	-1.111	-3.531
H 6.425	-2.68	-2.426
H 8.456	-4.006	-0.81
H 7.922	-1.053	-0.908
H 8.811	-1.831	0.389
H 7.778666666666667	-3.42987074829932	-5.315278911564626
H 5.654402684563759	-3.012409395973154	2.7550335570469797
