59

C -0.727	0.043	-9.798
O 0.303	-0.003	-9.126
N -1.776	-0.738	-9.563
C -1.768	-1.717	-8.469
C -0.666	-2.753	-8.706
O 0.007	-3.184	-7.773
C -3.141	-2.405	-8.344
C -4.115	-1.476	-7.602
C -3.002	-3.721	-7.554
C -4.085	-0.079	-8.216
H -2.574	-0.659	-10.142
H -1.552	-1.203	-7.541
H -3.526	-2.617	-9.331
H -5.114	-1.874	-7.672
H -3.826	-1.416	-6.566
H -2.293	-3.585	-6.75
H -2.648	-4.497	-8.216
H -3.954	-4.008	-7.144
H -3.187	0.434	-7.902
H -4.95	0.476	-7.887
H -4.099	-0.163	-9.286
N -0.501	-3.164	-9.952
C 0.51	-4.161	-10.276
C 1.893	-3.637	-9.891
O 2.715	-4.362	-9.321
C 0.469	-4.454	-11.777
O -0.807	-4.977	-12.116
C 1.552	-5.475	-12.133
H -1.075	-2.804	-10.66
H 0.307	-5.07	-9.732
H 0.644	-3.543	-12.327
H -0.677	-5.842	-12.511
H 1.486	-6.319	-11.463
H 2.524	-5.015	-12.04
H 1.407	-5.811	-13.149
N 2.142	-2.368	-10.183
C 3.423	-1.761	-9.848
C 3.476	-0.321	-10.359
C 4.887	0.24	-10.152
C 4.923	1.71	-10.572
N 4.154	2.523	-9.635
C 4.693	2.939	-8.493
N 3.995	3.666	-7.665
N 5.925	2.619	-8.202
H 1.451	-1.83	-10.628
H 4.216	-2.329	-10.31
H 3.23	-0.302	-11.411
H 2.767	0.282	-9.811
H 5.158	0.157	-9.109
H 5.587	-0.32	-10.752
H 5.946	2.052	-10.588
H 4.5	1.807	-11.562
H 3.228	2.768	-9.848
H 3.053	3.912	-7.889
H 4.404	3.978	-6.807
H 6.46	2.061	-8.839
H 6.335	2.93	-7.346
H 3.5565704697986575	-1.7739261744966441	-8.757892617449665
H -0.8149463087248322	0.7165570469798658	-10.620926174496645
