61

C 8.457	-3.763	-10.575
C 9.93	-3.919	-10.955
N 10.265	-5.367	-11.059
H 4.44	-4.368	-7.742
H 6.783	-5.915	-7.521
H 6.116	-4.67	-9.565
H 6.514	-3.162	-8.746
H 8.838	-3.894	-8.467
H 8.457	-5.436	-9.232
H 7.839	-4.261	-11.309
H 8.204	-2.713	-10.545
H 10.109	-3.439	-11.906
H 10.548	-3.459	-10.198
H 10.323	-5.779	-10.105
H 11.18	-5.478	-11.54
H 9.526	-5.857	-11.6
N 6.805	-3.075	-5.851
C 7.534	-2.325	-4.824
C 6.711	-1.09	-4.427
C 6.666	-0.072	-5.586
C 5.605	1.019	-5.304
C 8.041	0.599	-5.749
H 5.939	-2.746	-6.167
H 8.49	-2.016	-5.208
H 5.709	-1.403	-4.184
H 7.155	-0.628	-3.558
H 6.408	-0.59	-6.5
H 5.212	1.379	-6.245
H 6.056	1.84	-4.767
H 4.798	0.614	-4.715
H 7.922	1.538	-6.271
H 8.694	-0.04	-6.318
H 8.47	0.787	-4.775
C 3.103	-5.233	-5.777
C 4.601	-5.366	-6.013
O 5.32	-5.947	-5.202
C 2.359	-6.317	-6.55
C 0.899	-6.347	-6.098
C 0.149	-7.426	-6.877
C -1.308	-7.468	-6.416
N -2.038	-8.517	-7.182
H 2.902	-5.353	-4.722
H 2.406	-6.101	-7.608
H 2.814	-7.275	-6.356
H 0.854	-6.566	-5.041
H 0.444	-5.386	-6.286
H 0.188	-7.199	-7.932
H 0.609	-8.386	-6.698
H -1.346	-7.7	-5.362
H -1.769	-6.507	-6.59
H -1.354	-9.142	-7.653
H -2.644	-8.064	-7.896
H -2.625	-9.076	-6.532
N 5.065	-4.819	-7.127
C 6.484	-4.879	-7.459
C 7.316	-4.187	-6.378
O 8.407	-4.646	-6.038
C 6.743	-4.213	-8.813
C 8.214	-4.384	-9.199
H 2.773265306122449	-4.272911564625851	-6.082714285714286
H 7.684805369127517	-2.943302013422819	-3.9313758389261744
