48

C 7.697	-5.965	-2.295
O 8.444	-6.429	-1.436
N 7.609	-6.469	-3.52
C 8.402	-7.627	-3.928
C 9.894	-7.318	-3.836
O 10.694	-8.173	-3.451
C 8.05	-8.013	-5.365
C 6.655	-8.625	-5.412
O 6.134	-8.948	-4.358
O 6.125	-8.76	-6.504
H 6.989	-6.064	-4.161
H 8.174	-8.458	-3.277
H 8.077	-7.131	-5.989
H 8.768	-8.732	-5.729
N 10.265	-6.095	-4.187
C 11.664	-5.684	-4.137
C 12.161	-5.648	-2.695
O 13.357	-5.506	-2.443
C 11.835	-4.306	-4.775
C 11.662	-4.407	-6.287
O 11.675	-5.518	-6.793
O 11.526	-3.372	-6.917
H 9.586	-5.454	-4.484
H 12.256	-6.398	-4.69
H 11.094	-3.632	-4.373
H 12.822	-3.928	-4.552
N 11.234	-5.765	-1.752
C 11.581	-5.729	-0.336
C 12.528	-6.86	0.018
O 13.217	-6.813	1.038
C 10.317	-5.851	0.51
O 9.784	-7.16	0.366
H 10.294	-5.866	-2.012
H 12.06	-4.798	-0.121
H 10.55	-5.673	1.545
H 9.598	-5.124	0.172
H 10.405	-7.778	0.758
N 12.554	-7.874	-0.824
C 13.422	-9.025	-0.592
C 12.897	-10.238	-1.361
O 11.628	-10.612	-0.84
H 11.977	-7.845	-1.612
H 13.43	-9.25	0.455
H 12.791	-9.988	-2.404
H 13.596	-11.057	-1.259
H 10.996	-10.598	-1.562
H 7.068114093959732	-5.12741610738255	-2.0856040268456377
H 14.443885906040268	-8.805255033557046	-0.9079731543624161
