76

C 16.287	0.88	0.424
O 15.709	1.322	1.416
N 15.672	0.653	-0.734
C 14.244	0.92	-0.907
C 13.415	0.016	0.003
O 12.239	0.283	0.264
C 13.844	0.69	-2.367
C 14.575	1.691	-3.266
C 14.095	3.11	-2.972
O 13.019	3.246	-2.412
O 14.81	4.038	-3.31
H 16.188	0.299	-1.488
H 14.047	1.95	-0.65
H 14.112	-0.316	-2.657
H 12.778	0.823	-2.474
H 15.636	1.628	-3.081
H 14.376	1.454	-4.301
N 14.033	-1.053	0.487
C 13.348	-1.993	1.364
C 12.835	-1.271	2.607
O 11.792	-1.624	3.158
C 14.306	-3.113	1.771
H 14.97	-1.215	0.248
H 12.51	-2.422	0.834
H 14.816	-3.486	0.895
H 13.749	-3.915	2.233
H 15.031	-2.728	2.473
N 13.571	-0.259	3.042
C 13.176	0.51	4.216
C 11.832	1.196	3.976
O 11.008	1.304	4.885
C 14.237	1.566	4.532
C 15.515	0.877	5.014
C 16.601	1.916	5.27
O 16.346	3.084	5.026
O 17.673	1.529	5.704
H 14.391	-0.017	2.561
H 13.086	-0.158	5.058
H 14.449	2.141	3.642
H 13.87	2.222	5.307
H 15.309	0.339	5.928
H 15.855	0.184	4.259
N 11.615	1.665	2.749
C 10.366	2.346	2.414
C 9.19	1.385	2.582
O 8.136	1.759	3.093
C 10.418	2.854	0.967
C 9.162	3.676	0.659
C 9.153	4.944	1.51
O 8.082	5.495	1.71
O 10.219	5.345	1.947
H 12.305	1.558	2.062
H 10.235	3.185	3.079
H 11.295	3.471	0.833
H 10.466	2.011	0.294
H 9.161	3.947	-0.387
H 8.281	3.092	0.876
N 9.385	0.139	2.162
C 8.334	-0.879	2.286
C 8.774	-2.199	1.621
C 8.589	-2.094	0.099
C 7.92	-3.365	2.151
C 9.215	-0.804	-0.422
H 10.256	-0.103	1.766
H 7.44	-0.523	1.791
H 9.815	-2.382	1.846
H 9.059	-2.937	-0.378
H 7.535	-2.096	-0.129
H 6.897	-3.04	2.266
H 8.306	-3.682	3.11
H 7.956	-4.192	1.462
H 8.575	0.033	-0.179
H 9.33	-0.868	-1.493
H 10.177	-0.667	0.035
H 17.331187919463087	0.6545503355704698	0.45750335570469797
H 8.094147651006711	-1.042013422818792	3.345946308724832
