67

H 23.122	-10.07	0.874
H 21.663	-9.728	1.802
H 20.305	-10.426	0.027
H 21.506	-11.617	0.184
H 21.602	-10.469	-1.064
N 18.316	-3.904	-1.458
C 18.234	-2.501	-1.852
C 17.761	-1.625	-0.682
O 16.992	-2.078	0.165
C 17.264	-2.37	-3.032
C 15.886	-2.903	-2.646
O 15.761	-3.685	-1.703
N 14.839	-2.533	-3.334
H 17.723	-4.559	-1.88
H 19.21	-2.181	-2.167
H 17.172	-1.336	-3.311
H 17.642	-2.934	-3.871
H 14.942	-1.918	-4.091
H 13.951	-2.877	-3.099
N 18.192	-0.381	-0.622
C 17.783	0.557	0.472
C 16.287	0.88	0.424
O 15.709	1.322	1.416
C 18.645	1.81	0.223
C 18.996	1.753	-1.228
C 19.12	0.271	-1.57
H 18.034	0.132	1.431
H 18.085	2.71	0.445
H 19.544	1.774	0.822
H 18.212	2.21	-1.819
H 19.937	2.25	-1.41
H 18.821	0.092	-2.592
H 20.129	-0.076	-1.401
N 15.672	0.653	-0.734
H 16.188	0.299	-1.488
C 14.845	-8.719	-1.032
O 15.788	-9.423	-0.671
N 14.988	-7.654	-1.8
C 16.3	-7.232	-2.284
C 17.043	-6.454	-1.201
O 16.425	-5.802	-0.359
C 16.149	-6.363	-3.532
O 15.365	-7.058	-4.495
H 14.196	-7.135	-2.033
H 16.877	-8.109	-2.538
H 15.659	-5.44	-3.275
H 17.129	-6.149	-3.94
H 15.755	-7.926	-4.623
N 18.368	-6.521	-1.231
C 19.182	-5.809	-0.249
C 19.191	-4.316	-0.551
O 19.979	-3.561	0.018
C 20.617	-6.341	-0.265
C 20.637	-7.78	0.254
C 22.074	-8.303	0.252
C 22.101	-9.724	0.815
N 21.32	-10.627	-0.077
H 18.808	-7.051	-1.926
H 18.76	-5.965	0.73
H 20.998	-6.317	-1.276
H 21.236	-5.724	0.369
H 20.244	-7.805	1.26
H 20.028	-8.402	-0.386
H 22.454	-8.309	-0.76
H 22.691	-7.664	0.864
H 13.851765100671141	-8.93258389261745	-0.7248859060402684
H 14.681142857142857	0.838265306122449	-0.8540408163265306
