55

N 7.077	5.98	4.677
C 5.845	6.385	4.387
N 5.453	6.455	3.145
N 5.028	6.716	5.349
H 8.864	1.152	5.544
H 7.346	2.14	7.714
H 8.893	3.511	6.291
H 7.696	3.429	4.996
H 6.015	4.454	6.528
H 7.269	4.612	7.756
H 7.121	6.727	6.622
H 8.61	5.952	6.091
H 7.688	5.733	3.951
H 6.08	6.203	2.408
H 4.526	6.762	2.93
H 5.33	6.662	6.302
H 4.1	7.022	5.136
C 8.334	-0.879	2.286
C 8.0	-1.106	3.762
O 6.841	-1.288	4.126
C 8.774	-2.199	1.621
C 8.589	-2.094	0.099
C 7.92	-3.365	2.151
C 9.215	-0.804	-0.422
H 7.44	-0.523	1.791
H 9.815	-2.382	1.846
H 9.059	-2.937	-0.378
H 7.535	-2.096	-0.129
H 6.897	-3.04	2.266
H 8.306	-3.682	3.11
H 7.956	-4.192	1.462
H 8.575	0.033	-0.179
H 9.33	-0.868	-1.493
H 10.177	-0.667	0.035
N 9.019	-1.116	4.603
C 8.807	-1.339	6.027
C 7.893	-0.251	6.588
O 6.978	-0.527	7.371
C 10.154	-1.31	6.752
O 10.98	-2.349	6.245
C 9.938	-1.514	8.251
H 9.929	-0.982	4.262
H 8.347	-2.305	6.173
H 10.632	-0.356	6.586
H 11.21	-2.927	6.976
H 9.309	-2.377	8.411
H 9.464	-0.639	8.669
H 10.892	-1.671	8.733
N 8.132	0.985	6.175
C 7.312	2.099	6.635
C 7.839	3.417	6.066
C 7.075	4.585	6.695
C 7.531	5.9	6.063
H 6.273597315436241	1.9446040268456375	6.3125637583892615
H 9.099013605442178	-0.13800680272108845	2.1957414965986395
