61

C 3.566	-1.733	6.752
C 3.119	-1.005	8.011
O 2.04	-1.264	8.544
C 4.513	-2.872	7.119
C 4.736	-3.756	5.894
C 5.691	-4.892	6.257
C 5.906	-5.788	5.038
N 6.842	-6.891	5.394
H 2.697	-2.145	6.258
H 5.457	-2.462	7.447
H 4.078	-3.461	7.913
H 3.791	-4.167	5.569
H 5.166	-3.167	5.097
H 6.638	-4.478	6.572
H 5.268	-5.475	7.061
H 4.959	-6.206	4.726
H 6.325	-5.205	4.231
H 6.916	-6.963	6.428
H 7.781	-6.691	4.991
H 6.483	-7.788	5.011
N 3.954	-0.089	8.481
C 3.633	0.675	9.68
C 2.344	1.474	9.474
O 1.536	1.606	10.394
C 4.779	1.628	10.028
C 4.473	2.34	11.349
C 5.643	3.255	11.718
C 5.333	3.98	13.028
N 5.189	2.983	14.127
H 4.807	0.074	8.014
H 3.492	-0.01	10.502
H 5.698	1.068	10.124
H 4.886	2.363	9.247
H 3.575	2.931	11.241
H 4.333	1.607	12.128
H 6.539	2.662	11.836
H 5.793	3.98	10.933
H 6.14	4.659	13.262
H 4.413	4.537	12.923
H 4.284	2.482	14.023
H 5.212	3.474	15.044
H 5.969	2.299	14.078
N 2.164	2.019	8.272
C 0.974	2.821	7.98
C 1.053	3.327	6.532
C 2.181	4.372	6.382
C 2.458	4.654	4.886
C 1.773	5.685	7.071
H 2.845	1.894	7.58
H 0.924	3.659	8.654
H 1.25	2.491	5.882
H 0.111	3.772	6.256
H 3.081	3.988	6.843
H 3.497	4.925	4.766
H 1.834	5.467	4.543
H 2.25	3.779	4.293
H 2.356	6.498	6.662
H 1.959	5.616	8.13
H 0.724	5.875	6.894
H 4.046408163265306	-1.0553333333333335	6.091802721088435
H 0.06629530201342271	2.2141879194630874	8.086281879194631
