74

C 3.119	-1.005	8.011
O 2.04	-1.264	8.544
N 3.954	-0.089	8.481
C 3.633	0.675	9.68
C 2.344	1.474	9.474
O 1.536	1.606	10.394
C 4.779	1.628	10.028
C 4.473	2.34	11.349
C 5.643	3.255	11.718
C 5.333	3.98	13.028
N 5.189	2.983	14.127
H 4.807	0.074	8.014
H 3.492	-0.01	10.502
H 5.698	1.068	10.124
H 4.886	2.363	9.247
H 3.575	2.931	11.241
H 4.333	1.607	12.128
H 6.539	2.662	11.836
H 5.793	3.98	10.933
H 6.14	4.659	13.262
H 4.413	4.537	12.923
H 4.284	2.482	14.023
H 5.212	3.474	15.044
H 5.969	2.299	14.078
N 2.164	2.019	8.272
C 0.974	2.821	7.98
C -0.29	1.976	8.128
O -1.265	2.409	8.741
C 1.053	3.327	6.532
C 2.181	4.372	6.382
C 2.458	4.654	4.886
C 1.773	5.685	7.071
H 2.845	1.894	7.58
H 0.924	3.659	8.654
H 1.25	2.491	5.882
H 0.111	3.772	6.256
H 3.081	3.988	6.843
H 3.497	4.925	4.766
H 1.834	5.467	4.543
H 2.25	3.779	4.293
H 2.356	6.498	6.662
H 1.959	5.616	8.13
H 0.724	5.875	6.894
N -0.258	0.763	7.59
C -1.404	-0.141	7.7
C -1.602	-0.596	9.147
O -2.729	-0.756	9.613
C -1.232	-1.348	6.765
C -1.636	-0.952	5.335
C -0.836	0.27	4.887
C -1.352	-2.111	4.38
H 0.557	0.462	7.124
H -2.291	0.401	7.402
H -0.2	-1.663	6.774
H -1.861	-2.159	7.1
H -2.692	-0.717	5.314
H -0.963	0.413	3.825
H 0.203	0.112	5.106
H -1.185	1.145	5.411
H -1.402	-1.754	3.359
H -2.085	-2.888	4.529
H -0.365	-2.502	4.576
N -0.496	-0.816	9.847
C -0.548	-1.271	11.234
C 0.872	-1.488	11.757
C 1.486	-2.72	11.102
O 0.745	-3.473	10.492
O 2.689	-2.891	11.217
H 0.376	-0.682	9.42
H -1.084	-2.208	11.278
H 1.474	-0.621	11.529
H 0.842	-1.631	12.827
H -1.0614563758389262	-0.5349261744966441	11.864510067114095
H 3.431	-1.5131342281879196	7.132234899328859
