66

C -6.335	7.754	14.711
C -7.122	7.993	13.415
O -7.577	7.044	12.78
C -4.845	7.579	14.394
C -4.629	6.336	13.533
O -5.476	5.442	13.506
N -3.533	6.222	12.832
H -6.453	8.6	15.364
H -4.484	8.44	13.861
H -4.293	7.474	15.317
H -2.857	6.931	12.861
H -3.382	5.424	12.284
N -7.283	9.236	13.005
C -8.026	9.574	11.75
C -7.316	9.054	10.497
O -7.928	8.916	9.44
C -8.095	11.113	11.767
C -6.947	11.539	12.623
C -6.79	10.453	13.682
H -9.025	9.17	11.797
H -7.993	11.513	10.765
H -9.025	11.444	12.208
H -6.045	11.615	12.026
H -7.158	12.486	13.099
H -5.753	10.347	13.967
H -7.402	10.672	14.545
N -6.024	8.768	10.63
C -5.233	8.263	9.507
C -5.752	6.899	9.053
O -5.463	6.447	7.943
C -3.762	8.148	9.915
C -3.205	9.54	10.233
C -3.177	10.396	8.97
O -3.202	9.827	7.891
O -3.13	11.608	9.101
H -5.59	8.898	11.499
H -5.315	8.957	8.683
H -3.68	7.52	10.789
H -3.195	7.714	9.103
H -3.833	10.014	10.972
H -2.203	9.445	10.623
N -6.523	6.251	9.917
C -7.075	4.939	9.603
C -7.929	5.018	8.34
O -7.995	4.067	7.561
C -7.928	4.443	10.773
H -6.722	6.66	10.785
H -6.266	4.243	9.439
H -7.392	4.595	11.699
H -8.139	3.392	10.646
H -8.856	4.995	10.8
N -8.574	6.158	8.139
C -9.413	6.35	6.963
C -10.088	7.721	7.019
C -11.115	7.738	8.153
C -11.749	9.12	8.261
O -11.349	9.994	7.509
O -12.625	9.285	9.094
H -8.482	6.886	8.789
H -10.174	5.585	6.945
H -9.342	8.482	7.196
H -10.587	7.915	6.082
H -11.882	7.004	7.952
H -10.624	7.497	9.084
H -6.686571428571428	6.889993197278912	15.217612244897959
H -8.809778523489934	6.277469798657718	6.0481140939597315
