50

C -10.501	2.75	4.78
O -10.471	2.428	6.163
C -11.768	2.174	4.148
H -8.145	3.389	5.408
H -9.263	1.083	4.248
H -10.497	3.822	4.659
H -11.283	1.962	6.377
H -11.699	1.096	4.116
H -11.877	2.558	3.145
H -12.627	2.46	4.739
C -8.573	6.249	5.689
O -9.03	5.722	4.674
N -7.346	6.763	5.745
C -6.462	6.727	4.581
C -6.165	5.278	4.198
O -6.145	4.927	3.018
C -5.151	7.458	4.896
C -4.278	7.527	3.637
C -4.961	8.394	2.581
O -4.64	8.24	1.414
O -5.792	9.202	2.959
H -7.032	7.175	6.576
H -6.951	7.218	3.755
H -5.37	8.459	5.238
H -4.62	6.923	5.669
H -3.32	7.959	3.89
H -4.126	6.534	3.242
N -5.951	4.436	5.203
C -5.671	3.016	4.959
C -6.868	2.361	4.267
O -6.706	1.527	3.38
C -5.345	2.292	6.281
C -3.891	2.582	6.681
C -5.523	0.771	6.105
C -3.612	4.082	6.616
H -5.985	4.776	6.129
H -4.815	2.935	4.3
H -6.011	2.644	7.055
H -3.719	2.234	7.686
H -3.227	2.068	6.005
H -5.162	0.477	5.129
H -6.57	0.522	6.19
H -4.968	0.244	6.862
H -3.505	4.386	5.585
H -2.704	4.302	7.153
H -4.432	4.613	7.065
N -8.066	2.73	4.687
C -9.268	2.152	4.099
H -9.159308724832215	6.319496644295302	6.578234899328859
H -9.295288590604027	2.3717449664429533	3.023973154362416
