62

H -8.627	-2.446	-3.727
C -10.179	0.349	-2.219
C -9.386	0.364	-3.527
O -9.857	-0.139	-4.548
C -10.928	1.675	-2.057
C -11.938	1.838	-3.195
C -12.719	3.139	-3.003
C -13.719	3.313	-4.149
N -14.71	2.2	-4.116
H -10.902	-0.452	-2.256
H -11.447	1.682	-1.109
H -10.225	2.491	-2.088
H -11.417	1.868	-4.14
H -12.625	1.004	-3.189
H -13.25	3.105	-2.063
H -12.033	3.973	-2.998
H -14.234	4.255	-4.037
H -13.193	3.299	-5.092
H -14.262	1.327	-4.462
H -15.519	2.44	-4.725
H -15.038	2.055	-3.141
N -8.192	0.953	-3.497
C -7.362	1.039	-4.701
C -7.004	-0.358	-5.203
O -7.105	-0.64	-6.396
C -6.062	1.783	-4.361
C -6.348	3.272	-4.074
C -5.108	3.948	-3.439
C -6.699	4.003	-5.382
H -7.872	1.348	-2.66
H -7.893	1.569	-5.473
H -5.618	1.328	-3.493
H -5.376	1.702	-5.191
H -7.182	3.345	-3.388
H -5.437	4.739	-2.779
H -4.48	4.367	-4.213
H -4.537	3.231	-2.874
H -6.535	5.063	-5.255
H -7.733	3.833	-5.63
H -6.066	3.638	-6.179
N -6.613	-1.235	-4.286
C -6.274	-2.611	-4.655
C -7.521	-3.375	-5.109
O -7.464	-4.196	-6.023
C -5.589	-3.329	-3.484
C -4.103	-2.938	-3.441
C -3.968	-1.417	-3.377
C -3.444	-3.548	-2.205
H -6.566	-0.958	-3.341
H -5.588	-2.578	-5.489
H -6.065	-3.043	-2.559
H -5.671	-4.399	-3.617
H -3.609	-3.305	-4.331
H -2.949	-1.157	-3.134
H -4.626	-1.036	-2.619
H -4.231	-0.988	-4.329
H -2.482	-3.079	-2.043
H -3.31	-4.607	-2.354
H -4.075	-3.38	-1.344
N -8.643	-3.104	-4.455
H -9.531176870748299	0.1881360544217687	-1.394299319727891
H -9.513816326530613	-3.5709795918367346	-4.679122448979592
