69

C -10.31	-3.483	-6.219
O -10.831	-4.354	-6.918
N -10.075	-2.256	-6.659
C -10.425	-1.859	-8.018
C -9.568	-2.611	-9.033
O -9.826	-2.562	-10.235
C -10.233	-0.353	-8.197
C -11.313	0.405	-7.434
O -12.276	-0.226	-7.025
O -11.166	1.604	-7.273
H -9.657	-1.602	-6.06
H -11.462	-2.099	-8.195
H -9.261	-0.069	-7.821
H -10.296	-0.106	-9.247
N -8.54	-3.293	-8.543
C -7.639	-4.038	-9.413
C -8.388	-5.113	-10.181
O -7.918	-5.602	-11.208
C -6.541	-4.695	-8.581
O -7.11	-5.727	-7.788
H -8.377	-3.289	-7.577
H -7.195	-3.364	-10.112
H -5.792	-5.114	-9.229
H -6.093	-3.951	-7.946
H -7.401	-6.427	-8.377
N -9.549	-5.477	-9.674
C -10.364	-6.504	-10.318
C -11.143	-5.915	-11.484
O -11.661	-6.639	-12.334
C -11.336	-7.11	-9.306
O -10.601	-7.783	-8.292
H -9.86	-5.049	-8.853
H -9.721	-7.275	-10.693
H -11.924	-6.327	-8.855
H -11.994	-7.805	-9.811
H -10.889	-7.443	-7.442
N -11.206	-4.597	-11.52
C -11.907	-3.893	-12.59
C -11.033	-3.805	-13.837
O -9.805	-3.779	-13.746
C -12.296	-2.487	-12.134
O -13.035	-2.575	-10.922
H -10.757	-4.088	-10.819
H -12.807	-4.439	-12.835
H -11.409	-1.901	-11.966
H -12.897	-2.015	-12.9
H -13.777	-3.166	-11.071
N -11.671	-3.753	-14.999
C -10.94	-3.658	-16.257
C -11.861	-3.991	-17.432
C -12.251	-5.469	-17.374
C -13.16	-5.803	-18.559
C -13.51	-7.291	-18.529
N -14.29	-7.593	-17.296
H -12.651	-3.771	-15.011
H -10.125	-4.361	-16.238
H -12.751	-3.38	-17.377
H -11.346	-3.794	-18.36
H -11.361	-6.078	-17.418
H -12.779	-5.666	-16.453
H -14.065	-5.216	-18.494
H -12.648	-5.573	-19.481
H -14.1	-7.54	-19.398
H -12.602	-7.874	-18.532
H -13.66	-7.555	-16.469
H -14.705	-8.543	-17.373
H -15.048	-6.891	-17.183
H -10.022429530201343	-3.6882080536912754	-5.213201342281879
H -10.534261744966443	-2.649758389261745	-16.38697986577181
