17

C -1.142076606	-0.0469729295	-0.1255840517
C -1.9265078743	-1.3089034412	0.301680129
H -1.1855096425	0.036759462	-1.2160472786
C -3.4369306571	-1.0453598257	0.4527782768
C -3.9075932955	0.0539532126	-0.4964770622
C -3.2107310857	1.3911975484	-0.1829104313
H -1.5307369531	-1.6916484512	1.2449359621
H -1.7669775137	-2.0963476767	-0.4393193726
H -3.9927964823	-1.9692234242	0.2779290514
H -3.6620518227	-0.7467643987	1.4812350426
H -4.9919753741	0.1730768795	-0.4409420124
H -3.6869255062	-0.2479667246	-1.5247528297
H -3.1128411507	1.9761538126	-1.1011660312
H -3.8262843382	1.98657493	0.4974321254
H -0.0849875017361843	-0.09286273140197368	0.13772093825921053
H -1.615598125869079	0.8304787583986843	0.2809260920230263
H -2.228028728411842	1.2562529130401316	0.26395446648355264
