19

C 2.5271623156	-1.4289225993	-0.5470733066
C 4.0295078919	-1.3162781916	-0.2891445129
C 4.5292210873	0.0906897752	-0.5793233319
C 3.7785113184	1.0972163098	0.2850223435
C 2.2735092119	0.9828462853	0.1699245103
C 1.5027606654	2.0655648421	0.1639228056
H 6.1436467258	0.0093188842	0.4804500178
O 5.9187022944	0.2079823273	-0.4170309945
H 2.1997579556	-2.4456068272	-0.3238590706
H 2.3619983184	-1.2801447934	-1.6182920527
H 4.2670681211	-1.574758813	0.7495034401
H 4.5673556338	-2.0296707487	-0.9174588417
H 4.3481687975	0.3198104912	-1.631636277
H 4.0782529328	0.9251718526	1.3274718099
H 4.0967567162	2.109419265	0.0347417977
H 1.9562206538	3.0495388958	0.1939213171
H 1.9067924254355264	-0.715942006343421	0.0002701304046053288
H 1.835438868442282	0.006407287973825504	0.21217837379530202
H 0.45979561471506836	2.0151854342808218	0.12558955558356164
