26

C         1.9118167621    1.3488796193   -0.4989440790
C         1.7174464603    2.6666327942   -0.1156427762
C         0.4789495040    3.0770208576    0.3537985798
C        -0.5616828542    2.1642612584    0.4236805737
C        -0.3809488164    0.8307109259    0.0617913681
C         0.8771124892    0.4335932349   -0.3930475777
H         2.8610802357    1.0166260481   -0.8949274680
H         2.5328800416    3.3729257475   -0.1930570392
H         0.3192278562    4.1030642846    0.6542879403
H        -1.5254056219    2.4950812932    0.7833842134
C        -1.5027508628   -0.1694435942    0.1820072879
O         1.0803151354   -0.8320242966   -0.8628366428
C         1.5330403484   -1.8657356593   -0.1034316030
O         1.6674402595   -2.9102653671   -0.6272043420
C         1.8596184141   -1.5868436172    1.3375436681
O        -1.3033814197   -1.2469659274    0.6517843395
C        -2.8702393568    0.2363628775   -0.3287589721
C        -3.9121152545   -0.8662474871   -0.2013687478
H         2.6340361562   -0.8237294730    1.4166597474
H         2.2117026955   -2.5137442385    1.7804082359
H         0.9723410689   -1.2378802866    1.8600800743
H        -2.7457529209    0.5461952163   -1.3709294395
H        -3.1915360065    1.1340539723    0.2062942007
H        -3.6091826478   -1.7547982526   -0.7549023940
H        -4.8709479339   -0.5232204755   -0.5940014113
H        -4.0492460229   -1.1577347894    0.8400726338
