35

C -1.3560387059	0.9111113756	0.5518233753
C -2.6391870794	1.4430883608	0.5339069908
C -3.6937925535	0.7231793396	0.0019697863
C -3.4634744255	-0.5361590301	-0.5266929953
C -2.1786272853	-1.0592818058	-0.5047924979
C -1.0949203304	-0.3663616648	0.0334092534
O -0.4041100348	1.6975752098	1.1083910118
C 0.3195282883	-0.9926165382	0.1347141682
C 1.339955805	-0.0329838133	-0.5445737514
C 2.5535743246	0.328932012	-0.1038374491
C 0.853929016	0.4919350799	-1.8971471633
C 3.4029998986	1.3396297488	-0.8537185124
C 3.287103888	-0.190018548	1.1239115946
C 0.4192369641	-2.343493793	-0.6048091118
H 0.4615211389	1.4237062943	0.8375804722
C 0.524850542	-1.2956048855	1.6394641677
H -2.7827781482	2.4318738964	0.9464764766
H -4.6882511561	1.1496353627	-0.0035854471
H -4.2728350885	-1.1129283984	-0.9531440933
H -2.0273541385	-2.0432364043	-0.9208809395
H 1.6420977952	0.4483301078	-2.6476975461
H 0.0177527778	-0.0930602881	-2.2695078792
H 0.5059759031	1.5261976034	-1.836553887
H 2.8562033258	1.9281082043	-1.5835987155
H 4.2300297225	0.838922589	-1.3683046842
H 3.8528684252	2.0351439119	-0.1401739303
H 3.1761456214	-1.259595897	1.2675661149
H 4.353794932	0.005909694	1.0075080889
H 2.9730032035	0.3118421162	2.0419587343
H 1.4388670078	-2.7207556262	-0.5130177906
H -0.2490254155	-3.0880031434	-0.1688579777
H 0.1906022579	-2.2627024454	-1.6674964903
H 1.384428519	-1.9348539982	1.822144698
H 0.6241334046	-0.3951096451	2.2424259693
H -0.355573069	-1.8301253416	1.9983473092
