6

C 2.1210103544	1.1025461712	-0.3834201292
C 1.1892395639	0.6905448876	0.4715946338
H 1.5177643515	0.4432685591	1.4784348612
H 3.132111755114094	1.167800031291275	-0.07757069506308722
H 1.933268197095302	1.3836086147812081	-1.382957743181208
H 0.15573389492281864	0.5711349901771812	0.31856916139194635
