16

H 11.4896566442	-3.3140482912	-0.5901366655
C 11.3888432126	-1.6409988085	0.7632571023
C 12.8547055339	-1.4597278128	1.0857136089
H 13.1475655222	-2.1328281909	1.8948873959
H 13.4750030371	-1.6864971425	0.2152177596
C 10.5998815801	-0.4661437214	0.3908031165
H 11.1365200401	0.4805185824	0.3700884107
C 9.3434214901	-0.4539066639	-0.4429306752
H 8.8672408024	-1.4333297609	-0.4388227781
H 9.6257911839	-0.2342837546	-1.4767866098
C 11.0075177559	-3.044038307	0.3524388566
O 10.5171602722	-1.0199818936	1.6852523085
H 11.340595019	-3.7521185677	1.1148318268
H 13.0589280736	-0.4381959343	1.4048774544
H 9.932373167	-3.1566191382	0.2421413949
H 8.6391134520625	0.2794929857901317	-0.07565829141907893
