15

H 0.7929051014	1.6219531309	-2.0309916862
H 2.344657623	2.4561031686	-2.0372808112
C 3.5696075535	1.1960348746	0.0547680024
C 2.1210103544	1.1025461712	-0.3834201292
H 3.9396879183	2.2103965498	-0.1306211059
C 1.1892395639	0.6905448876	0.4715946338
H 2.2532972919	0.7673677027	-2.5153678336
C -0.291456058	0.5194672461	0.2523562166
H 1.5177643515	0.4432685591	1.4784348612
H 3.6312698611	1.0364131578	1.1331422541
H -0.5604386137	-0.513521795	0.5003607361
H -0.5652851461	0.6598085992	-0.7927030874
C 1.8520336098	1.5052221721	-1.81544998
H 4.22971819547171	0.4941186118565789	-0.44106132081513155
H -0.880926685199342	1.1884114544085524	0.8671881126921053
