15

H -11.2976367746	-2.2852508254	-0.9235727384
H -8.9060428291	-2.6010141968	-0.3129811817
H -8.9800359686	-1.3256633475	0.8804172947
H -13.5125172637	-2.6239707384	1.6138930572
H -13.4266689845	-2.3358972794	-0.1296698039
H -13.7808855201	-1.0058924923	0.9824175772
C -9.3832677503	-1.6442693532	-0.0801227673
C -10.8719262413	-1.8674702686	-0.0141474391
C -11.7126422496	-1.6168822957	0.9844879941
C -13.1866854015	-1.9148524769	0.8465129409
H -11.8947942344	-0.1191678311	2.5127566274
H -10.2704565495	-0.7981512033	2.4044389058
H -11.5803592386	-1.7346317255	3.1261643881
C -11.327950309	-1.0355299122	2.3230646671
H -9.114941283215131	-0.9126323237315788	-0.8331793755861843
