54

C 15.009	-0.349	4.96
O 14.608	0.732	5.436
O 16.22	-0.58	4.774
H 11.629	-2.463	4.73
H 11.728	-1.737	2.024
H 13.939	-0.754	2.563
H 12.6	-0.196	3.565
H 13.32	-1.512	5.394
H 14.536	-2.33	4.41
N 13.341	-4.384	2.737
C 14.119	-5.454	2.167
C 13.432	-5.984	0.915
O 14.056	-6.134	-0.142
C 14.353	-6.58	3.183
C 15.267	-7.685	2.664
C 16.641	-7.17	2.277
O 16.785	-6.566	1.19
O 17.594	-7.34	3.035
H 12.903	-4.515	3.605
H 15.073	-5.044	1.876
H 14.799	-6.158	4.071
H 13.401	-7.018	3.443
H 15.381	-8.436	3.432
H 14.802	-8.125	1.793
N 12.151	-6.205	1.017
C 11.39	-6.717	-0.1
C 10.277	-7.652	0.381
C 10.798	-8.932	1.005
O 10.969	-9.944	0.32
N 11.076	-8.903	2.282
H 11.686	-6.048	1.876
H 12.064	-7.28	-0.727
H 9.681	-7.136	1.118
H 9.65	-7.91	-0.46
H 10.939	-8.051	2.768
H 11.401	-9.714	2.727
C 9.592	-3.904	4.632
C 10.457	-3.472	3.479
O 10.153	-3.762	2.312
C 9.005	-5.301	4.351
C 10.047	-6.399	4.343
O 10.873	-6.447	3.43
O 10.03	-7.258	5.254
H 10.162	-3.914	5.548
H 8.267	-5.54	5.102
H 8.531	-5.282	3.383
N 11.469	-2.691	3.79
C 12.367	-2.158	2.786
C 13.202	-3.229	2.103
O 13.705	-3.012	1.01
C 13.24	-1.037	3.334
C 14.017	-1.399	4.577
H 8.838632653061225	-3.1877551020408164	4.706972789115646
H 10.965590604026845	-5.907677852348993	-0.6788053691275169
