48

C 15.009	-0.349	4.96
O 14.608	0.732	5.436
O 16.22	-0.58	4.774
H 11.629	-2.463	4.73
H 11.728	-1.737	2.024
H 13.939	-0.754	2.563
H 12.6	-0.196	3.565
H 13.32	-1.512	5.394
H 14.536	-2.33	4.41
N 13.341	-4.384	2.737
C 14.119	-5.454	2.167
C 13.432	-5.984	0.915
O 14.056	-6.134	-0.142
C 14.353	-6.58	3.183
C 15.267	-7.685	2.664
C 16.641	-7.17	2.277
O 16.785	-6.566	1.19
O 17.594	-7.34	3.035
H 12.903	-4.515	3.605
H 15.073	-5.044	1.876
H 14.799	-6.158	4.071
H 13.401	-7.018	3.443
H 15.381	-8.436	3.432
H 14.802	-8.125	1.793
N 12.151	-6.205	1.017
H 11.686	-6.048	1.876
C 8.439	-2.141	5.769
O 9.138	-2.253	6.778
N 8.557	-2.92	4.735
C 9.592	-3.904	4.632
C 10.457	-3.472	3.479
O 10.153	-3.762	2.312
C 9.005	-5.301	4.351
C 10.047	-6.399	4.343
O 10.873	-6.447	3.43
O 10.03	-7.258	5.254
H 7.958	-2.832	3.955
H 10.162	-3.914	5.548
H 8.267	-5.54	5.102
H 8.531	-5.282	3.383
N 11.469	-2.691	3.79
C 12.367	-2.158	2.786
C 13.202	-3.229	2.103
O 13.705	-3.012	1.01
C 13.24	-1.037	3.334
C 14.017	-1.399	4.577
H 7.684476510067114	-1.4053221476510067	5.717348993288591
H 11.62295918367347	-6.5602653061224485	0.24193877551020404
