47

C 10.799	-5.59	-0.906
O 10.222	-5.816	-1.961
N 10.952	-4.368	-0.407
C 10.38	-3.21	-1.069
C 8.868	-3.274	-1.039
O 8.184	-2.926	-2.014
H 11.466	-4.259	0.421
H 10.713	-2.313	-0.567
H 10.708	-3.189	-2.097
N 8.341	-3.731	0.068
C 6.927	-3.919	0.217
C 6.46	-3.277	1.498
O 7.246	-3.092	2.405
C 6.57	-5.436	0.213
O 7.285	-6.124	1.262
C 6.953	-6.071	-1.101
H 8.93	-3.928	0.831
H 6.424	-3.437	-0.602
H 5.506	-5.547	0.364
H 7.709	-5.468	1.826
H 8.017	-5.931	-1.229
H 6.73	-7.125	-1.068
H 6.427	-5.608	-1.921
N 5.223	-2.924	1.567
C 4.688	-2.336	2.761
C 3.342	-2.928	3.083
O 2.609	-3.357	2.19
C 4.585	-0.835	2.619
H 4.623	-3.044	0.791
H 5.368	-2.552	3.573
H 3.897	-0.604	1.821
H 4.23	-0.406	3.544
H 5.562	-0.439	2.382
N 3.04	-2.979	4.34
C 1.781	-3.455	4.809
C 0.895	-2.279	4.993
O 1.254	-1.332	5.693
C 1.938	-4.203	6.104
H 3.692	-2.632	4.99
H 1.332	-4.099	4.071
H 2.327	-3.528	6.853
H 0.966	-4.562	6.402
H 2.616	-5.031	5.968
N -0.216	-2.308	4.363
H -0.459	-3.124	3.869
H 11.211510067114094	-6.376630872483221	-0.34342281879194636
H -0.8397959183673469	-1.536408163265306	4.374102040816326
