54

C 5.384	0.072	-6.611
C 3.86	0.168	-6.783
O 3.362	0.908	-7.627
C 6.008	-0.95	-7.601
C 5.385	-2.353	-7.712
C 4.23	-2.366	-8.696
C 6.427	-3.357	-8.114
H 5.806	1.042	-6.804
H 5.974	-0.52	-8.588
H 7.042	-1.073	-7.32
H 4.978	-2.639	-6.754
H 4.591	-2.104	-9.679
H 3.767	-3.341	-8.712
H 3.516	-1.622	-8.373
H 7.217	-3.363	-7.38
H 5.973	-4.335	-8.172
H 6.833	-3.092	-9.079
N 3.133	-0.574	-5.954
C 1.673	-0.605	-6.012
C 1.095	0.512	-5.219
O -0.087	0.827	-5.341
C 1.109	-1.946	-5.523
C 1.141	-3.026	-6.577
O 1.025	-2.758	-7.764
N 1.256	-4.241	-6.162
H 3.576	-1.09	-5.242
H 1.391	-0.472	-7.046
H 1.732	-2.279	-4.705
H 0.105	-1.834	-5.15
H 1.295	-4.395	-5.195
H 1.356	-4.964	-6.821
N 1.916	1.105	-4.393
C 1.491	2.23	-3.63
C 1.676	3.476	-4.457
O 2.764	3.755	-4.969
C 2.294	2.34	-2.335
C 2.222	1.142	-1.399
C 3.022	1.389	-0.142
C 0.795	0.83	-1.048
H 2.831	0.767	-4.31
H 0.445	2.114	-3.39
H 3.328	2.489	-2.609
H 1.956	3.213	-1.797
H 2.638	0.284	-1.908
H 2.627	2.25	0.377
H 2.924	0.518	0.489
H 4.06	1.551	-0.39
H 0.255	0.582	-1.95
H 0.786	-0.021	-0.382
H 0.34	1.683	-0.568
N 0.629	4.204	-4.587
H -0.197	3.891	-4.153
H 5.635122448979592	-0.17038775510204085	-5.60869387755102
H 0.6234489795918368	5.054693877551021	-5.0990816326530615
