48

H 5.481	4.378	2.341
H 6.683	3.22	-0.978
H 5.042	4.011	-2.815
H 4.002	6.63	1.718
H 2.938	5.833	-3.076
H 2.211	7.861	0.6
H 1.691	7.468	-1.739
N 6.481	6.26	4.234
C 6.663	6.287	5.665
C 6.753	7.718	6.185
C 5.495	8.534	5.947
C 5.597	9.925	6.517
C 5.717	9.908	8.027
N 5.736	11.271	8.587
H 5.636	6.597	3.868
H 7.582	5.771	5.893
H 6.943	7.68	7.247
H 7.581	8.213	5.698
H 5.31	8.599	4.886
H 4.668	8.023	6.418
H 6.479	10.386	6.101
H 4.716	10.478	6.232
H 4.877	9.372	8.441
H 6.634	9.408	8.302
H 4.87	11.779	8.317
H 5.768	11.225	9.625
H 6.559	11.805	8.245
C 8.525	6.884	0.456
O 7.812	7.901	0.406
N 8.225	5.839	1.151
C 7.053	5.756	1.958
C 7.397	5.771	3.429
O 8.511	5.402	3.817
C 6.249	4.519	1.597
C 5.59	4.629	0.264
C 5.898	3.957	-0.885
C 4.517	5.505	-0.06
N 5.048	4.347	-1.891
C 4.197	5.299	-1.406
C 3.786	6.442	0.676
C 3.182	5.994	-2.036
C 2.785	7.13	0.051
C 2.492	6.903	-1.292
H 8.821	5.056	1.14
H 6.45	6.624	1.739
H 6.898	3.656	1.582
H 9.416328859060403	6.812805369127517	-0.11146308724832205
H 5.826389261744967	5.782161073825503	6.1490134228187925
