79

C 9.256	5.601	-2.373
O 9.31	4.507	-1.806
N 9.5	6.738	-1.761
C 9.802	6.782	-0.357
C 8.525	6.884	0.456
O 7.812	7.901	0.406
C 10.753	7.939	-0.063
O 10.245	9.155	-0.602
H 9.478	7.591	-2.246
H 10.292	5.854	-0.102
H 10.862	8.048	1.005
H 11.717	7.738	-0.508
H 9.371	9.282	-0.209
N 8.225	5.839	1.151
C 7.053	5.756	1.958
C 7.397	5.771	3.429
O 8.511	5.402	3.817
C 6.249	4.519	1.597
C 5.59	4.629	0.264
C 5.898	3.957	-0.885
C 4.517	5.505	-0.06
N 5.048	4.347	-1.891
C 4.197	5.299	-1.406
C 3.786	6.442	0.676
C 3.182	5.994	-2.036
C 2.785	7.13	0.051
C 2.492	6.903	-1.292
H 8.821	5.056	1.14
H 6.45	6.624	1.739
H 6.898	3.656	1.582
H 5.481	4.378	2.341
H 6.683	3.22	-0.978
H 5.042	4.011	-2.815
H 4.002	6.63	1.718
H 2.938	5.833	-3.076
H 2.211	7.861	0.6
H 1.691	7.468	-1.739
N 6.481	6.26	4.234
C 6.663	6.287	5.665
C 5.498	5.584	6.339
O 4.391	5.527	5.784
C 6.753	7.718	6.185
C 5.495	8.534	5.947
C 5.597	9.925	6.517
C 5.717	9.908	8.027
N 5.736	11.271	8.587
H 5.636	6.597	3.868
H 7.582	5.771	5.893
H 6.943	7.68	7.247
H 7.581	8.213	5.698
H 5.31	8.599	4.886
H 4.668	8.023	6.418
H 6.479	10.386	6.101
H 4.716	10.478	6.232
H 4.877	9.372	8.441
H 6.634	9.408	8.302
H 4.87	11.779	8.317
H 5.768	11.225	9.625
H 6.559	11.805	8.245
N 5.749	5.014	7.482
C 4.705	4.386	8.272
C 3.689	5.443	8.737
O 4.076	6.526	9.194
C 5.292	3.6	9.484
C 4.19	3.007	10.354
C 6.222	2.495	8.994
H 6.673	5.041	7.814
H 4.19	3.695	7.619
H 5.87	4.283	10.089
H 3.599	2.319	9.766
H 4.631	2.484	11.19
H 3.555	3.801	10.719
H 7.031	2.927	8.421
H 6.628	1.963	9.839
H 5.681	1.796	8.372
N 2.415	5.139	8.591
H 2.165	4.268	8.213
H 9.035436241610737	5.638691275167785	-3.4109060402684563
H 1.694061224489796	5.76765306122449	8.878265306122449
