59

C 5.498	5.584	6.339
O 4.391	5.527	5.784
N 5.749	5.014	7.482
C 4.705	4.386	8.272
C 3.689	5.443	8.737
O 4.076	6.526	9.194
C 5.292	3.6	9.484
C 4.19	3.007	10.354
C 6.222	2.495	8.994
H 6.673	5.041	7.814
H 4.19	3.695	7.619
H 5.87	4.283	10.089
H 3.599	2.319	9.766
H 4.631	2.484	11.19
H 3.555	3.801	10.719
H 7.031	2.927	8.421
H 6.628	1.963	9.839
H 5.681	1.796	8.372
N 2.415	5.139	8.591
C 1.376	6.045	9.005
C 1.081	7.084	7.96
O 0.722	8.22	8.285
H 2.165	4.268	8.213
H 0.476	5.483	9.206
H 1.691	6.541	9.91
N 1.236	6.718	6.707
C 0.988	7.662	5.627
C -0.212	7.222	4.834
O -0.628	6.058	4.912
C 2.161	7.719	4.665
C 2.311	9.092	4.005
O 1.397	9.924	4.136
O 3.361	9.375	3.369
H 1.525	5.806	6.499
H 0.825	8.644	6.043
H 3.058	7.352	5.136
H 1.897	7.023	3.881
N -0.721	8.118	4.042
C -1.804	7.844	3.165
C -2.705	9.055	3.02
C -3.555	9.418	4.214
C -4.879	8.636	4.304
C -4.741	7.221	4.836
N -6.078	6.667	5.176
H -0.286	9.0	4.006
H -2.378	7.018	3.552
H -2.089	9.909	2.784
H -3.363	8.874	2.184
H -2.981	9.223	5.106
H -3.763	10.474	4.156
H -5.591	9.16	4.921
H -5.275	8.556	3.298
H -4.286	6.6	4.078
H -4.125	7.229	5.722
H -6.746	6.772	4.377
H -6.041	5.671	5.468
H -6.475	7.207	5.973
H 6.311154362416108	6.074684563758389	5.868557046979866
H -1.393234899328859	7.625691275167785	2.2012818791946307
