72

C        -0.0705161076   -1.4411662926   -0.1814541103
C        -0.2400551275   -0.6839568623   -1.3651301480
C         0.2400551275    0.6839568623   -1.3651301480
C         0.0705161076    1.4411662926   -0.1814541103
C        -0.0232208016    0.6939478731    1.0180173714
C         0.0232208016   -0.6939478731    1.0180173714
C         0.2817963449   -2.9912880120   -0.1454742252
C        -1.2251442206   -1.1273391441   -2.5464351977
C         1.2251442206    1.1273391441   -2.5464351977
C        -0.2817963449    2.9912880120   -0.1454742252
C        -0.0346438500    1.3540933524    2.3766475377
C         0.0346438500   -1.3540933524    2.3766475377
C         1.5499466809   -3.1576422991    0.7401130080
C         0.7428000309   -3.5403442858   -1.5091266109
C        -0.8084602571   -3.9422916245    0.4005776062
O         1.0989657519   -0.9958087740    3.0833091078
C        -2.1087640044    0.1108113174   -2.8505268423
C        -0.6989976598   -1.6585576080   -3.8998885110
C        -2.2536233949   -2.1576621030   -2.0233616079
C         0.6989976598    1.6585576080   -3.8998885110
C         2.1087640044   -0.1108113174   -2.8505268423
C         2.2536233949    2.1576621030   -2.0233616079
C        -0.7428000309    3.5403442858   -1.5091266109
C         0.8084602571    3.9422916245    0.4005776062
C        -1.5499466809    3.1576422991    0.7401130080
O        -0.8016037718   -2.0755673083    2.8079740041
C         1.2075716697   -1.5136714859    4.3964507416
O        -1.0989657519    0.9958087740    3.0833091078
C        -1.2075716697    1.5136714859    4.3964507416
O         0.8016037718    2.0755673083    2.8079740041
H         2.3055526314   -2.4057614092    0.5077020828
H         1.3492109968   -3.1256143140    1.8048938810
H         1.9834260563   -4.1397336227    0.5470092489
H         1.5558376103   -2.9489529649   -1.9298257640
H         1.1180318912   -4.5539927689   -1.3593853908
H        -0.0489572154   -3.6139616768   -2.2391803345
H        -1.2562854303   -3.5764493562    1.3158050914
H        -1.6024277606   -4.1203109829   -0.3191600690
H        -0.3484209806   -4.9119716952    0.6116669636
H        -2.6512921013    0.4240013965   -1.9573768215
H        -2.8446887321   -0.1561868649   -3.6125422517
H        -1.5512221470    0.9616807114   -3.2183034973
H        -0.2205038003   -0.8961932743   -4.5026642997
H        -1.5545309244   -2.0204412039   -4.4749023745
H        -0.0022061988   -2.4843223519   -3.8068137821
H        -2.5979380941   -1.9130071041   -1.0194925891
H        -1.8889374896   -3.1757623603   -2.0252120881
H        -3.1212904436   -2.1385285960   -2.6853578219
H         0.0022061988    2.4843223519   -3.8068137821
H         0.2205038003    0.8961932743   -4.5026642997
H         1.5545309244    2.0204412039   -4.4749023745
H         2.6512921013   -0.4240013965   -1.9573768215
H         2.8446887321    0.1561868649   -3.6125422517
H         1.5512221470   -0.9616807114   -3.2183034973
H         1.8889374896    3.1757623603   -2.0252120881
H         3.1212904436    2.1385285960   -2.6853578219
H         2.5979380941    1.9130071041   -1.0194925891
H        -1.5558376103    2.9489529649   -1.9298257640
H         0.0489572154    3.6139616768   -2.2391803345
H        -1.1180318912    4.5539927689   -1.3593853908
H         1.2562854303    3.5764493562    1.3158050914
H         0.3484209806    4.9119716952    0.6116669636
H         1.6024277606    4.1203109829   -0.3191600690
H        -2.3055526314    2.4057614092    0.5077020828
H        -1.9834260563    4.1397336227    0.5470092489
H        -1.3492109968    3.1256143140    1.8048938810
H         2.0847746692   -1.0411441817    4.8276398495
H         0.3211041421   -1.2795842263    4.9807544025
H         1.3369385808   -2.5945991579    4.3705955645
H        -2.0847746692    1.0411441817    4.8276398495
H        -1.3369385808    2.5945991579    4.3705955645
H        -0.3211041421    1.2795842263    4.9807544025
