41

C        -7.4904817605    0.1568784438    1.1285459652
C        -6.9426113765   -0.0753693194   -0.2785906266
C        -7.4337449571   -1.4130011270   -0.8490967439
C        -5.4373391839    0.0152047016   -0.3913921965
C        -4.5620850406    0.2155826254    0.5863036309
C        -3.0951813627    0.3091838521    0.4129294236
C        -2.4793042309    0.9546186196   -0.5698971509
C        -0.9940771215    1.0625571539   -0.8020658434
C        -0.0896579146    0.3573633350    0.2046126332
C         1.3936616101    0.5247045277   -0.1224779035
C         3.7646389832    0.0153500186    0.5772629885
C         4.6297969221   -0.9575710365    0.3256127768
C         6.0640249747   -0.7425776749    0.0245945691
O         6.8210073164   -1.6321995424   -0.1984907080
O         6.4275125730    0.5343795948    0.0260141970
C         7.7876755322    0.8087775225   -0.2552641638
C         2.3085796860   -0.1864038816    0.8807897614
H        -8.5822525761    0.1253179016    1.1168275145
H        -7.1450617032   -0.6127008365    1.8237504360
H        -7.1896236690    1.1297540737    1.5215943678
H        -7.3460641945    0.7156185555   -0.9237706192
H        -7.0749883620   -2.2487947590   -0.2423173881
H        -7.0761620265   -1.5643887345   -1.8704479626
H        -8.5256077592   -1.4510397756   -0.8685603454
H        -5.0533095437   -0.1170392716   -1.3996598420
H        -4.9100601102    0.3005598722    1.6101393503
H        -2.5086963936   -0.1817684925    1.1824001282
H        -3.0896187350    1.4799223474   -1.2990212732
H        -0.7812613501    0.6796712844   -1.8070914086
H        -0.7327133535    2.1264937124   -0.8394858877
H        -0.3340695379   -0.7089023616    0.2328732096
H        -0.2827841990    0.7482529755    1.2085265311
H         1.5960433071    0.1373362468   -1.1259639527
H         1.6445559482    1.5906580309   -0.1474272837
H         4.1199529929    1.0397137267    0.5608084195
H         4.3383057039   -1.9995439787    0.3252214684
H         7.8883449799    1.8891969675   -0.2081700278
H         8.4355510550    0.3376680910    0.4812326507
H         8.0560006188    0.4483244854   -1.2463348206
H         2.0794321606   -1.2540694559    0.9052866566
H         2.1088957099    0.2048207529    1.8843945577
