48

N 23.783	0.486	-0.937
C 22.385	0.044	-0.984
C 22.29	-1.343	-1.592
O 23.088	-1.661	-2.474
H 24.253	0.497	-1.82
H 21.992	0.031	0.03
H 21.804	0.736	-1.593
N 21.39	-2.209	-1.098
C 21.219	-3.566	-1.612
C 20.602	-3.561	-3.018
O 20.278	-2.505	-3.564
C 20.322	-4.26	-0.588
C 19.467	-3.118	-0.039
C 20.415	-1.923	-0.057
H 22.183	-4.075	-1.647
H 19.713	-5.053	-1.025
H 20.954	-4.664	0.2
H 18.634	-2.929	-0.713
H 19.1	-3.321	0.965
H 19.855	-1.013	-0.276
H 20.922	-1.836	0.904
N 20.524	-4.733	-3.647
C 19.96	-4.894	-4.977
C 18.444	-5.086	-4.866
O 17.696	-4.418	-5.579
C 20.676	-6.045	-5.688
O 20.471	-5.959	-7.081
H 20.806	-5.575	-3.154
H 20.137	-3.982	-5.545
H 21.748	-5.982	-5.496
H 20.308	-7.0	-5.312
H 20.121	-6.837	-7.356
N 17.991	-6.065	-4.077
C 16.574	-6.34	-3.863
C 15.929	-6.986	-5.108
C 14.398	-6.993	-4.991
C 13.749	-7.764	-6.139
O 13.141	-8.812	-5.921
N 13.777	-7.237	-7.351
H 18.644	-6.586	-3.515
H 16.07	-5.389	-3.68
H 16.199	-6.428	-6.001
H 16.299	-8.002	-5.238
H 14.108	-7.465	-4.049
H 14.035	-5.963	-4.986
H 14.26	-6.372	-7.563
H 13.464	-7.813	-8.135
H 16.47418120805369	-6.9827181208053695	-2.9718120805369126
