53

C 13.696	2.459	-3.031
C 14.444	3.732	-2.647
O 14.81	4.525	-3.512
C 12.804	2.563	-4.272
O 11.609	3.234	-3.932
C 12.456	1.165	-4.805
H 14.49	1.775	-3.295
H 13.327	3.11	-5.058
H 10.924	2.931	-4.538
H 13.36	0.563	-4.905
H 12.002	1.248	-5.794
H 11.768	0.658	-4.128
N 14.654	3.955	-1.343
C 15.364	5.106	-0.786
C 14.881	6.439	-1.385
O 15.672	7.353	-1.626
C 16.863	4.835	-0.971
C 17.717	5.502	0.112
C 19.205	5.272	-0.18
N 19.6	5.845	-1.476
C 19.665	7.148	-1.766
N 19.57	8.068	-0.812
N 19.824	7.526	-3.024
H 14.327	3.254	-0.689
H 15.148	5.136	0.283
H 17.056	3.762	-0.92
H 17.156	5.176	-1.965
H 17.506	6.57	0.154
H 17.477	5.064	1.081
H 19.805	5.712	0.614
H 19.396	4.199	-0.198
H 19.61	5.176	-2.249
H 19.433	7.8	0.165
H 19.596	9.069	-0.989
H 19.93	6.843	-3.769
H 19.843	8.511	-3.285
N 13.575	6.528	-1.636
C 12.859	7.659	-2.207
C 12.802	8.827	-1.211
C 11.737	9.848	-1.531
N 10.39	9.604	-1.726
C 11.948	11.19	-1.698
C 9.8	10.777	-2.011
N 10.702	11.774	-1.967
H 13.041	5.708	-1.379
H 11.832	7.32	-2.33
H 12.597	8.435	-0.219
H 13.774	9.322	-1.179
H 9.921	8.709	-1.712
H 12.901	11.701	-1.622
H 8.746	10.904	-2.232
H 13.14644217687075	2.0579319727891154	-2.2143061224489795
H 13.200825503355706	7.9333221476510065	-3.220268456375839
