88

H 14.948	8.099	-5.771
H 15.459	5.63	-5.719
H 13.913	5.31	-6.481
H 15.431	5.099	-8.204
H 14.81	6.703	-8.501
H 17.413	6.006	-7.075
H 17.282	6.475	-8.772
H 16.184	8.635	-7.634
H 19.31	7.051	-7.405
H 20.101	8.357	-6.585
H 17.26	10.463	-6.646
H 18.996	10.392	-6.528
N 11.775	7.517	-6.334
C 10.548	7.926	-7.003
C 10.183	9.362	-6.618
O 10.92	10.055	-5.929
C 9.434	6.945	-6.617
C 9.137	6.881	-5.126
C 9.85	5.991	-4.301
C 8.144	7.702	-4.563
C 9.552	5.884	-2.932
C 7.851	7.621	-3.192
C 8.534	6.692	-2.379
O 8.209	6.591	-1.063
H 11.657	7.026	-5.467
H 10.703	7.881	-8.082
H 8.521	7.206	-7.151
H 9.724	5.957	-6.97
H 10.602	5.353	-4.736
H 7.583	8.385	-5.187
H 10.082	5.157	-2.332
H 7.067	8.239	-2.781
H 8.374	5.71	-0.714
N 9.048	9.865	-7.073
H 8.45	9.323	-7.695
H 8.794	10.826	-6.871
C 15.364	5.106	-0.786
C 14.881	6.439	-1.385
O 15.672	7.353	-1.626
C 16.863	4.835	-0.971
C 17.717	5.502	0.112
C 19.205	5.272	-0.18
N 19.6	5.845	-1.476
C 19.665	7.148	-1.766
N 19.57	8.068	-0.812
N 19.824	7.526	-3.024
H 15.148	5.136	0.283
H 17.056	3.762	-0.92
H 17.156	5.176	-1.965
H 17.506	6.57	0.154
H 17.477	5.064	1.081
H 19.805	5.712	0.614
H 19.396	4.199	-0.198
H 19.61	5.176	-2.249
H 19.433	7.8	0.165
H 19.596	9.069	-0.989
H 19.93	6.843	-3.769
H 19.843	8.511	-3.285
N 13.575	6.528	-1.636
C 12.859	7.659	-2.207
C 13.335	8.041	-3.618
O 13.297	9.208	-3.992
C 12.802	8.827	-1.211
C 11.737	9.848	-1.531
N 10.39	9.604	-1.726
C 11.948	11.19	-1.698
C 9.8	10.777	-2.011
N 10.702	11.774	-1.967
H 13.041	5.708	-1.379
H 11.832	7.32	-2.33
H 12.597	8.435	-0.219
H 13.774	9.322	-1.179
H 9.921	8.709	-1.712
H 12.901	11.701	-1.622
H 8.746	10.904	-2.232
N 13.734	7.063	-4.444
C 14.171	7.338	-5.818
C 13.012	7.889	-6.667
O 13.263	8.501	-7.703
C 14.73	6.033	-6.417
C 15.402	6.113	-7.804
C 16.851	6.618	-7.781
N 16.981	8.04	-7.417
C 18.105	8.619	-6.979
N 19.235	7.926	-6.898
N 18.115	9.896	-6.631
H 13.771	6.101	-4.114
H 14.847197278911565	4.268197278911565	-1.19143537414966
