33

H -9.685	-4.838	0.338
H -10.584	-4.771	-2.498
H -12.787	-4.436	1.209
H -12.186	-3.381	-3.617
H -14.394	-2.931	0.087
H -15.042	-2.611	-2.806
N -7.765	-7.782	-1.091
C -6.372	-8.128	-0.862
C -5.949	-8.954	-2.081
C -6.922	-8.516	-3.17
C -8.202	-8.281	-2.388
H -6.281	-8.724	0.049
H -4.915	-8.775	-2.372
H -6.091	-10.008	-1.865
H -6.596	-7.562	-3.589
H -7.055	-9.274	-3.943
H -8.826	-7.574	-2.93
H -8.732	-9.224	-2.249
C -9.943	-6.773	-0.558
C -8.493	-7.091	-0.197
O -8.034	-6.717	0.887
C -10.501	-5.54	0.172
C -11.579	-4.755	-0.559
C -11.43	-4.433	-1.924
C -12.665	-4.217	0.157
C -12.351	-3.603	-2.573
C -13.582	-3.36	-0.479
C -13.423	-3.044	-1.845
O -14.257	-2.152	-2.441
H -9.974	-6.55	-1.617
H -10.863	-5.85	1.152
H -10.528952380952381	-7.631911564625851	-0.3709319727891156
H -5.753697986577182	-7.227476510067114	-0.7751073825503355
