55

H -1.359	-5.722	-4.524
H 1.551	-5.067	-8.142
H 3.841	-4.237	-8.628
H 5.812	-5.578	-8.028
H 3.201	-8.703	-6.567
H 5.574	-8.693	-5.969
N -7.765	-7.782	-1.091
C -6.372	-8.128	-0.862
C -5.511	-6.874	-0.741
O -5.908	-5.782	-1.179
C -5.949	-8.954	-2.081
C -6.922	-8.516	-3.17
C -8.202	-8.281	-2.388
H -6.281	-8.724	0.049
H -4.915	-8.775	-2.372
H -6.091	-10.008	-1.865
H -6.596	-7.562	-3.589
H -7.055	-9.274	-3.943
H -8.826	-7.574	-2.93
H -8.732	-9.224	-2.249
N -4.326	-7.055	-0.156
C -3.329	-6.017	0.058
C -2.737	-5.532	-1.26
O -3.176	-5.93	-2.344
H -4.089	-7.983	0.164
H -3.778	-5.175	0.582
H -2.527	-6.428	0.67
H 5.937	-8.936	-7.671
C 5.841	-8.178	-6.894
N -1.715	-4.677	-1.183
C -1.047	-4.127	-2.35
C -0.053	-5.122	-2.914
C 1.206	-5.301	-2.305
C 2.152	-6.159	-2.889
C 1.847	-6.82	-4.088
C 0.579	-6.673	-4.679
C -0.381	-5.843	-4.076
N 0.287	-7.281	-5.89
N 0.979	-7.391	-6.981
C 2.245	-6.935	-7.306
C 2.412	-5.679	-7.908
C -8.493	-7.091	-0.197
O -8.034	-6.717	0.887
C 3.711	-5.208	-8.17
C 3.36	-7.735	-7.012
C 4.666	-7.266	-7.248
C 4.833	-5.983	-7.818
H -1.382	-4.37	-0.278
H -1.781	-3.882	-3.12
H -0.514	-3.215	-2.087
H 1.478	-4.744	-1.423
H 3.139	-6.274	-2.462
H 2.603	-7.431	-4.546
H -9.505080536912752	-6.869040268456375	-0.44897315436241614
H 6.81261744966443	-7.694704697986578	-6.730986577181208
