49

C 9.007	-5.173	-7.04
O 8.078	-4.485	-7.469
N 9.923	-4.714	-6.193
C 9.864	-3.412	-5.545
C 9.764	-2.252	-6.538
O 9.097	-1.265	-6.248
C 11.077	-3.255	-4.604
C 11.028	-4.291	-3.469
C 12.442	-3.37	-5.31
H 10.65	-5.344	-5.894
H 8.958	-3.386	-4.934
H 11.02	-2.263	-4.164
H 11.122	-5.306	-3.855
H 11.843	-4.11	-2.768
H 10.081	-4.202	-2.933
H 12.561	-2.564	-6.034
H 13.247	-3.274	-4.581
H 12.543	-4.325	-5.822
N 10.394	-2.367	-7.709
C 10.387	-1.328	-8.728
C 8.955	-1.042	-9.185
O 8.493	0.098	-9.128
C 11.264	-1.812	-9.899
C 11.619	-0.721	-10.92
C 12.619	0.314	-10.394
O 13.364	0.035	-9.425
O 12.718	1.401	-11.008
H 10.92	-3.205	-7.889
H 10.795	-0.414	-8.281
H 12.185	-2.244	-9.507
H 10.744	-2.617	-10.42
H 12.061	-1.2	-11.795
H 10.706	-0.212	-11.236
N 8.237	-2.084	-9.595
C 6.863	-2.004	-10.074
C 5.941	-1.588	-8.939
O 5.126	-0.685	-9.127
C 6.386	-3.363	-10.612
C 7.079	-3.833	-11.89
O 8.311	-3.661	-12.031
O 6.411	-4.483	-12.724
H 8.671	-2.996	-9.623
H 6.789	-1.255	-10.868
H 6.519	-4.125	-9.845
H 5.317	-3.286	-10.824
N 6.105	-2.197	-7.755
H 6.808	-2.928	-7.692
H 9.188476510067114	-6.153671140939598	-7.419006711409396
H 5.530469387755102	-1.9943877551020408	-6.947326530612245
