60

C 5.772	5.074	-11.131
N 5.471	6.343	-11.799
C 6.387	7.269	-12.094
N 7.677	7.061	-11.869
N 6.013	8.427	-12.604
H 5.944	1.378	-8.569
H 4.623	3.992	-8.836
H 6.068	2.572	-10.622
H 4.487	1.9	-11.009
H 4.659	3.808	-12.428
H 3.703	4.431	-11.079
H 5.89	5.266	-10.064
H 6.706	4.669	-11.526
H 4.499	6.497	-12.053
H 7.98	6.282	-11.286
H 8.401	7.705	-12.194
H 5.043	8.706	-12.693
H 6.699	9.13	-12.87
C 5.277	-1.905	-6.591
C 5.281	-0.425	-6.238
O 4.228	0.098	-5.889
C 5.665	-2.764	-5.378
C 4.491	-2.806	-4.374
C 3.424	-3.81	-4.819
C 4.959	-3.177	-2.97
H 4.254	-2.154	-6.853
H 5.911	-3.781	-5.694
H 6.548	-2.327	-4.91
H 4.023	-1.829	-4.297
H 2.568	-3.756	-4.151
H 3.835	-4.82	-4.812
H 3.074	-3.595	-5.825
H 5.353	-4.188	-2.983
H 4.129	-3.134	-2.267
H 5.744	-2.492	-2.649
N 6.413	0.265	-6.361
C 6.508	1.687	-6.049
C 5.565	2.515	-6.927
O 4.985	3.489	-6.437
C 7.986	2.107	-6.173
C 8.786	1.565	-4.971
C 8.221	3.616	-6.343
C 8.589	2.298	-3.648
H 7.251	-0.227	-6.658
H 6.175	1.829	-5.021
H 8.393	1.637	-7.069
H 8.521	0.529	-4.785
H 9.836	1.59	-5.233
H 7.83	3.947	-7.306
H 7.717	4.178	-5.554
H 9.29	3.816	-6.323
H 8.929	3.325	-3.735
H 7.537	2.285	-3.378
H 9.175	1.792	-2.88
N 5.451	2.193	-8.22
C 4.566	2.938	-9.111
C 4.996	2.762	-10.571
C 4.678	4.035	-11.367
H 5.879693877551021	-2.117544217687075	-7.438265306122449
H 3.5347785234899325	2.6134093959731546	-8.964503355704698
