50

C 5.772	5.074	-11.131
N 5.471	6.343	-11.799
C 6.387	7.269	-12.094
N 7.677	7.061	-11.869
N 6.013	8.427	-12.604
H 5.944	1.378	-8.569
H 4.623	3.992	-8.836
H 6.068	2.572	-10.622
H 4.487	1.9	-11.009
H 4.659	3.808	-12.428
H 3.703	4.431	-11.079
H 5.89	5.266	-10.064
H 6.706	4.669	-11.526
H 4.499	6.497	-12.053
H 7.98	6.282	-11.286
H 8.401	7.705	-12.194
H 5.043	8.706	-12.693
H 6.699	9.13	-12.87
N 2.926	1.171	-8.835
C 1.64	0.528	-8.622
C 0.983	1.146	-7.386
O -0.15	1.605	-7.468
C 1.909	-0.981	-8.513
C 0.841	-1.858	-7.896
C 0.844	-2.076	-6.506
C -0.068	-2.56	-8.708
C -0.052	-2.991	-5.933
C -0.97	-3.471	-8.133
C -0.962	-3.685	-6.746
H 3.732	0.563	-8.951
H 0.996	0.719	-9.48
H 2.146	-1.36	-9.508
H 2.8	-1.115	-7.91
H 1.554	-1.563	-5.874
H -0.069	-2.423	-9.777
H -0.036	-3.155	-4.866
H -1.672	-4.001	-8.761
H -1.661	-4.38	-6.311
N 1.736	1.311	-6.297
H 2.666	0.905	-6.312
C 5.565	2.515	-6.927
O 4.985	3.489	-6.437
N 5.451	2.193	-8.22
C 4.566	2.938	-9.111
C 3.13	2.486	-8.907
O 2.24	3.322	-8.781
C 4.996	2.762	-10.571
C 4.678	4.035	-11.367
H 6.223201342281879	1.93706711409396	-6.3141677852349
H 1.4355510204081632	1.7169183673469388	-5.420632653061224
