50

C -0.415	5.499	-6.985
O -1.188	6.407	-6.698
N -0.741	4.523	-7.831
C -2.035	4.423	-8.503
C -3.07	3.839	-7.533
O -4.152	4.399	-7.332
C -1.873	3.544	-9.751
C -3.07	3.595	-10.7
O -4.093	4.247	-10.404
O -2.884	3.173	-11.867
H -0.052	3.803	-8.019
H -2.357	5.415	-8.82
H -0.993	3.892	-10.299
H -1.702	2.507	-9.458
N -2.663	2.796	-6.8
C -3.404	2.023	-5.798
C -3.995	2.862	-4.667
O -4.832	2.354	-3.924
C -2.459	0.969	-5.19
C -2.603	-0.48	-5.671
C -3.812	-1.176	-5.052
C -2.689	-0.627	-7.194
H -1.753	2.422	-7.053
H -4.233	1.509	-6.279
H -1.433	1.276	-5.351
H -2.588	0.959	-4.114
H -1.716	-0.998	-5.308
H -4.73	-0.701	-5.392
H -3.743	-1.114	-3.965
H -3.82	-2.226	-5.339
H -1.786	-0.239	-7.657
H -3.553	-0.102	-7.6
H -2.766	-1.679	-7.446
N -3.537	4.101	-4.473
C -4.068	4.955	-3.416
C -3.259	6.263	-3.351
C -3.411	7.222	-4.541
C -2.386	8.37	-4.557
O -2.669	9.453	-5.069
N -1.153	8.174	-4.1
H -2.849	4.47	-5.114
H -3.911	4.431	-2.472
H -3.53	6.803	-2.444
H -2.213	5.97	-3.292
H -3.323	6.663	-5.468
H -4.412	7.647	-4.515
H -0.86	7.241	-3.807
H -0.44	8.859	-4.335
H 0.5496174496644295	5.473872483221476	-6.541778523489933
H -5.158825503355704	5.077798657718121	-3.5387986577181207
