56

H -19.544	4.35	-0.912
H -19.971	5.334	1.208
H -20.346	7.647	-1.457
H -21.628	8.551	-0.728
H -21.605	6.641	2.296
H -22.311	7.978	1.477
C -13.363	1.797	-1.55
O -14.501	1.69	-1.084
N -12.313	1.149	-1.029
C -12.385	0.131	0.022
C -13.273	0.569	1.197
O -14.111	-0.227	1.636
C -10.958	-0.311	0.412
C -10.916	-1.205	1.651
C -10.305	-1.121	-0.719
H -11.41	1.29	-1.475
H -12.877	-0.735	-0.418
H -10.357	0.572	0.614
H -11.205	-0.641	2.534
H -11.601	-2.042	1.52
H -9.905	-1.594	1.781
H -10.432	-0.642	-1.683
H -9.242	-1.251	-0.526
H -10.767	-2.101	-0.78
N -13.229	1.839	1.614
C -14.061	2.356	2.707
C -14.887	3.568	2.251
O -15.522	4.231	3.07
C -13.205	2.653	3.953
O -12.328	3.741	3.741
C -12.359	1.45	4.385
H -12.529	2.469	1.239
H -14.789	1.6	2.996
H -13.881	2.904	4.77
H -11.922	3.933	4.613
H -12.968	0.547	4.378
H -11.984	1.612	5.395
H -11.513	1.322	3.71
N -14.95	3.84	0.942
C -15.657	4.976	0.347
C -17.172	4.727	0.304
C -17.841	5.633	-0.741
C -19.35	5.411	-0.812
N -20.054	5.922	0.378
C -20.889	6.969	0.388
N -20.971	7.782	-0.665
N -21.624	7.225	1.461
H -14.409	3.258	0.313
H -15.312	5.044	-0.685
H -17.358	3.688	0.027
H -17.597	4.909	1.289
H -17.647	6.682	-0.523
H -17.42	5.399	-1.72
H -19.734	5.88	-1.716
H -13.179429530201341	2.5110402684563757	-2.324765100671141
H -15.341026845637584	5.90668456375839	0.8453758389261745
