49

N -9.59	-4.553	6.397
C -9.543	-3.267	5.711
C -9.613	-2.056	6.645
O -9.109	-0.998	6.269
C -10.645	-3.205	4.64
C -10.264	-4.085	3.445
C -12.034	-3.601	5.171
H -10.273	-5.231	6.081
H -8.58	-3.208	5.199
H -10.713	-2.178	4.283
H -10.15	-5.122	3.751
H -11.043	-4.031	2.688
H -9.323	-3.742	3.012
H -12.281	-3.017	6.053
H -12.787	-3.426	4.401
H -12.06	-4.656	5.441
N -10.292	-2.148	7.79
C -10.391	-1.035	8.73
C -9.003	-0.759	9.31
O -8.549	0.383	9.289
C -11.397	-1.414	9.821
C -11.639	-0.344	10.893
C -12.674	0.692	10.474
O -12.567	1.282	9.377
O -13.655	0.869	11.234
H -10.69	-3.041	8.058
H -10.727	-0.134	8.209
H -12.351	-1.676	9.362
H -11.011	-2.301	10.313
H -12.01	-0.845	11.788
H -10.709	0.154	11.155
N -8.32	-1.79	9.814
C -6.98	-1.661	10.385
C -6.014	-1.205	9.303
O -5.18	-0.332	9.557
C -6.453	-3.0	10.909
C -7.169	-3.529	12.143
O -8.318	-4.006	12.009
O -6.533	-3.59	13.219
H -8.731	-2.714	9.807
H -6.978	-0.925	11.191
H -6.495	-3.743	10.115
H -5.407	-2.857	11.166
N -6.178	-1.765	8.095
H -6.897	-2.478	8.013
C -8.748	-4.928	7.357
O -7.877	-4.181	7.807
H -8.89318120805369	-5.905181208053691	7.761134228187919
H -5.607632653061224	-1.5568367346938776	7.2921836734693875
