63

H -0.308	-2.799	4.849
H 1.735	-3.654	8.535
H 1.466	-4.015	6.106
N -1.794	1.618	6.474
C -1.517	2.153	5.146
C -2.841	2.206	4.365
C -2.812	3.074	3.133
C -1.926	2.776	2.088
C -3.654	4.196	3.057
C -1.83	3.652	0.991
C -3.594	5.053	1.945
C -2.666	4.791	0.914
O -2.567	5.647	-0.143
H -2.745	1.307	6.631
H -0.834	1.488	4.624
H -3.134	1.201	4.071
H -3.616	2.598	5.023
H -1.342	1.865	2.139
H -4.354	4.381	3.859
H -1.148	3.428	0.187
H -4.251	5.91	1.897
H -3.399	6.109	-0.3
C -4.354	3.184	9.739
C -2.938	2.804	9.325
O -2.092	3.661	9.083
C -4.684	2.719	11.176
C -4.292	3.781	12.214
C -5.456	4.767	12.35
N -5.037	6.114	12.759
C -5.815	7.191	12.587
N -7.108	7.042	12.305
N -5.314	8.41	12.729
H -4.423	4.271	9.656
H -5.753	2.515	11.271
H -4.169	1.785	11.396
H -4.113	3.308	13.18
H -3.381	4.29	11.894
H -5.952	4.857	11.381
H -6.175	4.369	13.069
H -4.04	6.226	12.956
H -7.499	6.107	12.205
H -7.71	7.807	12.019
H -4.327	8.525	12.96
H -5.827	9.249	12.465
N -2.728	1.501	9.18
C -1.484	0.866	8.79
C -0.941	1.457	7.486
O 0.23	1.801	7.414
C -1.808	-0.63	8.708
C -0.847	-1.517	7.964
C -1.005	-1.716	6.582
C 0.134	-2.229	8.67
C -0.177	-2.626	5.905
C 0.971	-3.124	7.992
C 0.812	-3.327	6.613
H -3.502	0.886	9.404
H -0.739	1.026	9.57
H -1.895	-0.999	9.726
H -2.782	-0.755	8.242
H -1.788	-1.194	6.053
H 0.234	-2.103	9.736
H -5.044768707482993	2.7421700680272107	9.059877551020408
H -1.060275167785235	3.14903355704698	5.192677852348994
