48

C 13.106	3.139	2.53
C 13.377	2.103	1.431
O 14.525	2.019	0.982
C 13.126	2.473	3.923
C 14.504	1.848	4.197
C 12.804	3.473	5.043
H 13.898	3.888	2.491
H 12.382	1.676	3.958
H 14.619	0.945	3.601
H 15.302	2.534	3.915
H 14.597	1.572	5.247
H 12.947	3.005	6.017
H 13.421	4.365	4.957
H 11.759	3.765	4.983
N 12.353	1.371	0.955
C 12.476	0.336	-0.082
C 13.337	0.823	-1.244
O 14.414	0.267	-1.468
C 11.099	-0.19	-0.557
C 11.226	-1.268	-1.64
C 10.327	-0.872	0.569
H 11.44	1.501	1.383
H 13.005	-0.503	0.368
H 10.508	0.632	-0.957
H 11.76	-0.879	-2.502
H 11.764	-2.132	-1.249
H 10.229	-1.584	-1.957
H 10.046	-0.167	1.331
H 9.425	-1.35	0.189
H 10.961	-1.62	1.021
N 12.941	1.908	-1.909
C 13.696	2.459	-3.031
C 14.444	3.732	-2.647
O 14.81	4.525	-3.512
C 12.804	2.563	-4.272
O 11.609	3.234	-3.932
C 12.456	1.165	-4.805
H 12.048	2.345	-1.707
H 14.49	1.775	-3.295
H 13.327	3.11	-5.058
H 10.924	2.931	-4.538
H 13.36	0.563	-4.905
H 12.002	1.248	-5.794
H 11.768	0.658	-4.128
N 14.654	3.955	-1.343
H 14.327	3.254	-0.689
H 12.183761904761905	3.635421768707483	2.363312925170068
H 15.146653061224491	4.753653061224489	-0.9565102040816327
