13

C 0.7273301302	0.8130942553	0.2894684522
C 1.0717803496	-0.5861645363	-0.2154951444
O 1.7098447671	1.7099264835	-0.1515089352
C 2.3978675294	-1.1191917554	0.309273137
O 3.492391646	-0.4941702279	-0.2838194624
H 3.3862483858	0.4444388967	-0.2077615748
H 1.4326331297	2.588951039	0.0701750346
H 0.7049604157	0.7881587162	1.384675601
H 1.1241337054	-0.5690440822	-1.3096860465
H 2.4176647508	-1.0300804604	1.401893874
H 2.4548876888	-2.1783163493	0.0656574826
H -0.24079548460526312	1.0983521572	-0.05877987678815788
H 0.31164318964647875	-1.2584293696549298	0.10210824533943663
