11

H -5.6374701935	-0.6661803535	-0.018019458
H -5.4937514515	-2.19220767	0.8460838157
H -5.7339343881	-1.9054445626	-2.2014764819
H -7.029631836	-2.4314165343	-1.1154822
H -5.5912884428	-3.4413372172	-1.3313404832
C -3.1267298505	-1.1076593728	0.5776307685
O -3.886607762	-1.6965724739	-0.337873183
C -5.2929166464	-1.6951867779	-0.1012699539
C -5.947582988	-2.412398188	-1.2590388109
O -3.5719865205	-0.5815006214	1.5547327056
H -2.170918807155555	-1.1640212199722222	0.3623304900166666
