32

C         0.0000000000   -1.2518714041    1.2187514710
C         0.0000000000    0.0000000000    2.1070507747
C         0.0000000000    1.2518714041    1.2187514710
C         1.2531471736    1.2497982026    0.3324475880
C         1.2768009489    0.0000000000   -0.5692222136
C         1.2531471736   -1.2497982026    0.3324475880
C        -1.2531471736   -1.2497982026    0.3324475880
C        -1.2531471736    1.2497982026    0.3324475880
C        -1.2768009489    0.0000000000   -0.5692222136
C         0.0000000000    0.0000000000   -1.4325045700
C         2.5222898205    0.0000000000   -1.4563962462
H         0.0000000000   -2.1476568686    1.8460699855
H        -0.8785005937    0.0000000000    2.7596847559
H         0.8785005937    0.0000000000    2.7596847559
H         0.0000000000    2.1476568686    1.8460699855
H         1.2755202049    2.1527788018   -0.2864958625
H         2.1530464917    1.2739115238    0.9556394594
H         1.2755202049   -2.1527788018   -0.2864958625
H         2.1530464917   -1.2739115238    0.9556394594
H        -1.2755202049   -2.1527788018   -0.2864958625
H        -2.1530464917   -1.2739115238    0.9556394594
H        -1.2755202049    2.1527788018   -0.2864958625
H        -2.1530464917    1.2739115238    0.9556394594
C        -2.5222898205    0.0000000000   -1.4563962462
H         0.0000000000    0.8779936157   -2.0875828707
H         0.0000000000   -0.8779936157   -2.0875828707
H         3.4349856889    0.0000000000   -0.8542295390
H         2.5479426017   -0.8832395872   -2.1005018422
H         2.5479426017    0.8832395872   -2.1005018422
H        -3.4349856889    0.0000000000   -0.8542295390
H        -2.5479426017    0.8832395872   -2.1005018422
H        -2.5479426017   -0.8832395872   -2.1005018422
