6

C 0.9681331571	-0.5116177219	-0.4502103738
H 0.1762391135	1.3448193097	-0.8742840116
C 1.0649889362	0.8186993293	-0.5466823457
H 1.893102107728767	1.449926967650685	-0.3627753360945205
H 0.04743313277123273	-1.0005271025465754	-0.6335506145342465
H 1.785406716141096	-1.1701681012753427	-0.251253612879452
