39

C -0.8680482178	0.3941413568	-0.8252519415
C -0.1025314479	-0.3336211108	-1.6101989388
N 0.5179154662	-1.0011687703	-2.4012573694
C 1.7123117546	-1.7915102443	-2.1000247645
C 2.2962472964	-1.6487110841	-0.7118663186
C 1.6894866625	-2.2757677898	0.3737001792
C 2.2386274815	-2.1310827445	1.6291425682
C 3.3783885971	-1.3842320793	1.854715134
C 3.9808071555	-0.7640378831	0.772275594
C 3.445136462	-0.8932542356	-0.5033170612
H 0.7955785392	-2.8727804862	0.2567203197
F 1.6552088596	-2.7364266146	2.6576133761
H 3.7752010739	-1.3017274686	2.8561086695
H 4.8770833361	-0.1778340224	0.9237985523
H 3.9282498021	-0.4058526193	-1.3398050172
C -0.5677962587	1.8470753335	-0.6386511191
C -2.0309914913	-0.2553351156	-0.1462834321
C -2.3544609515	0.0765109318	1.1704180053
C -3.4170497562	-0.5382294593	1.8144765345
C -4.1755484607	-1.4988584053	1.158796164
C -3.8637781955	-1.8346361839	-0.1503967425
C -2.8057305196	-1.2139616626	-0.7994896591
H -1.767063985	0.8174691844	1.6945323366
H -5.0040817616	-1.9779765967	1.6632196767
H -4.4526079928	-2.5750324954	-0.6760331575
H -2.5835031548	-1.4695693697	-1.8269795614
C -1.5907747151	2.7912111559	-0.7526647479
C -1.3250391558	4.1430048702	-0.608637579
C -0.0314280166	4.5801860445	-0.3501979353
C 0.9899499489	3.6512940309	-0.2307721852
C 0.722895649	2.2946290212	-0.3663384055
H -2.599508291	2.4619071501	-0.9609873543
H -2.1302318959	4.8596518256	-0.7045539086
H 0.1748650757	5.6364047221	-0.2384384501
H 1.999643212	3.9786607562	-0.019655201
H 1.5216198938	1.5761255219	-0.2462446375
H -3.6494157645	-0.2692421977	2.836603852
H 1.4433091797	-2.8299924284	-2.2919021448
H 2.4557015069	-1.5195469677	-2.846599831
